@<TRIPOS>MOLECULE
L4X
   74    76     1     0     0
SMALL
bcc


@<TRIPOS>ATOM
      1 C11          0.1330     2.4240   -20.6460 c3         1 L4X       0.205100
      2 C12          0.7060     2.4930   -22.0390 ca         1 L4X      -0.093300
      3 C13          0.3090     3.4840   -22.9350 ca         1 L4X      -0.119500
      4 C14          0.8520     3.5430   -24.2100 ca         1 L4X      -0.133000
      5 C15          1.8050     2.6140   -24.6110 ca         1 L4X      -0.129000
      6 C16          2.2100     1.6260   -23.7250 ca         1 L4X      -0.133000
      7 C17          1.6570     1.5650   -22.4510 ca         1 L4X      -0.119500
      8 C19          0.0850    -2.4830   -21.4690 c3         1 L4X      -0.058200
      9 C21          1.8030    -2.8070   -23.2550 ce         1 L4X      -0.109200
     10 C22          2.5850    -2.4250   -24.4350 ca         1 L4X      -0.046800
     11 C23          2.1090    -1.5280   -25.3960 ca         1 L4X      -0.119500
     12 C24          2.8960    -1.1620   -26.4760 ca         1 L4X      -0.133000
     13 C25          4.1730    -1.6890   -26.6270 ca         1 L4X      -0.131000
     14 C26          4.6510    -2.5970   -25.6920 ca         1 L4X      -0.133000
     15 C27          3.8610    -2.9650   -24.6120 ca         1 L4X      -0.119500
     16 C29         -2.1240    -6.5030   -23.5060 c3         1 L4X      -0.036100
     17 C31         -1.2860    -5.7740   -25.7590 ca         1 L4X      -0.115500
     18 C32         -0.2670    -5.4380   -26.6360 ca         1 L4X      -0.125000
     19 C33          1.0650    -5.4370   -26.2240 ca         1 L4X      -0.063300
     20 C02         -4.2210    -5.8300   -22.3400 c          1 L4X       0.652100
     21 C03         -3.0130    -5.3070   -23.1180 c3         1 L4X       0.031700
     22 C05         -2.0720    -3.0820   -22.6470 c          1 L4X       0.669100
     23 C06         -1.4340    -2.2390   -21.5460 c3         1 L4X       0.036700
     24 C08         -1.7360     0.0860   -20.8350 c          1 L4X       0.630100
     25 C09         -2.0230     1.5030   -21.3280 c3         1 L4X       0.087800
     26 C20          0.8170    -2.0930   -22.7120 c2         1 L4X      -0.155200
     27 C30         -1.0110    -6.1200   -24.4370 ca         1 L4X      -0.087300
     28 C34          1.3370    -5.7830   -24.9050 ca         1 L4X      -0.125000
     29 C35          0.3160    -6.1140   -24.0230 ca         1 L4X      -0.115500
     30 C38         -5.4320    -6.1260   -24.5010 c3         1 L4X       0.093300
     31 N04         -2.3060    -4.3570   -22.2980 ns         1 L4X      -0.550900
     32 N07         -1.7350    -0.8530   -21.7970 ns         1 L4X      -0.562900
     33 N10         -1.3140     2.5490   -20.6360 n7         1 L4X      -0.800200
     34 N37         -5.2690    -6.2390   -23.0670 ns         1 L4X      -0.570900
     35 O01         -4.1880    -5.9090   -21.1200 o          1 L4X      -0.610100
     36 O18         -1.5460    -0.1610   -19.6530 o          1 L4X      -0.618100
     37 H1           0.4980     1.5060   -20.1670 h1         1 L4X       0.047200
     38 H2           0.5310     3.2520   -20.0530 h1         1 L4X       0.047200
     39 H3          -0.4360     4.2100   -22.6340 ha         1 L4X       0.136500
     40 H4           0.5300     4.3180   -24.8950 ha         1 L4X       0.133000
     41 H5           2.2270     2.6590   -25.6070 ha         1 L4X       0.129000
     42 H6           2.9470     0.8930   -24.0270 ha         1 L4X       0.133000
     43 H7           1.9700     0.7830   -21.7690 ha         1 L4X       0.136500
     44 H8           0.2790    -3.5280   -21.2140 hc         1 L4X       0.062700
     45 H9           0.4520    -1.8870   -20.6280 hc         1 L4X       0.062700
     46 H10          2.0970    -3.7390   -22.7790 ha         1 L4X       0.119000
     47 H11          1.1100    -1.1190   -25.3060 ha         1 L4X       0.133000
     48 H12          2.5070    -0.4650   -27.2090 ha         1 L4X       0.130500
     49 H13          4.7850    -1.4020   -27.4720 ha         1 L4X       0.130000
     50 H14          5.6390    -3.0240   -25.8040 ha         1 L4X       0.130500
     51 H15          4.2410    -3.6760   -23.8880 ha         1 L4X       0.133000
     52 H16         -2.7470    -7.2680   -23.9780 hc         1 L4X       0.057200
     53 H17         -1.7240    -6.9510   -22.5940 hc         1 L4X       0.057200
     54 H18         -2.3120    -5.7790   -26.1120 ha         1 L4X       0.123500
     55 H19         -0.5100    -5.1800   -27.6600 ha         1 L4X       0.128500
     56 H20         -3.3330    -4.7870   -24.0210 h1         1 L4X       0.096700
     57 H21         -1.8690    -2.5200   -20.5840 h1         1 L4X       0.087700
     58 H22         -1.8230     1.5740   -22.4000 h1         1 L4X       0.070700
     59 H23         -3.0960     1.6770   -21.2090 h1         1 L4X       0.070700
     60 H24          0.5510    -1.1350   -23.1490 ha         1 L4X       0.130000
     61 H25          2.3640    -5.7910   -24.5570 ha         1 L4X       0.128500
     62 H26          0.5600    -6.3820   -23.0020 ha         1 L4X       0.123500
     63 H27          2.3600    -3.9770   -27.1180 hc         1 L4X       0.044367
     64 H28          3.0990    -5.5550   -26.9220 hc         1 L4X       0.044367
     65 H29          1.9110    -5.2900   -28.2010 hc         1 L4X       0.044367
     66 H30         -6.3810    -6.5810   -24.7680 h1         1 L4X       0.042700
     67 H31         -5.4530    -5.0880   -24.8350 h1         1 L4X       0.042700
     68 H32         -4.6500    -6.6520   -25.0490 h1         1 L4X       0.042700
     69 H33         -2.1400    -4.6370   -21.3420 hn         1 L4X       0.332500
     70 H34         -1.8610    -0.5750   -22.7580 hn         1 L4X       0.338500
     71 H35         -1.6390     2.6170   -19.6810 hn         1 L4X       0.377800
     72 H37         -6.0420    -6.6250   -22.5450 hn         1 L4X       0.320500
     73 O28         -2.3160    -2.6150   -23.7490 o          1 L4X      -0.607100
     74 C36          2.1650    -5.0500   -27.1680 c3         1 L4X      -0.050800
@<TRIPOS>BOND
     1     1     2 1   
     2     1    33 1   
     3     1    37 1   
     4     1    38 1   
     5     2     3 ar  
     6     2     7 ar  
     7     3     4 ar  
     8     3    39 1   
     9     4     5 ar  
    10     4    40 1   
    11     5     6 ar  
    12     5    41 1   
    13     6     7 ar  
    14     6    42 1   
    15     7    43 1   
    16     8    23 1   
    17     8    26 1   
    18     8    44 1   
    19     8    45 1   
    20     9    10 1   
    21     9    26 2   
    22     9    46 1   
    23    10    11 ar  
    24    10    15 ar  
    25    11    12 ar  
    26    11    47 1   
    27    12    13 ar  
    28    12    48 1   
    29    13    14 ar  
    30    13    49 1   
    31    14    15 ar  
    32    14    50 1   
    33    15    51 1   
    34    16    21 1   
    35    16    27 1   
    36    16    52 1   
    37    16    53 1   
    38    17    18 ar  
    39    17    27 ar  
    40    17    54 1   
    41    18    19 ar  
    42    18    55 1   
    43    19    28 ar  
    44    19    74 1   
    45    20    21 1   
    46    20    34 1   
    47    20    35 2   
    48    21    31 1   
    49    21    56 1   
    50    22    23 1   
    51    22    31 1   
    52    22    73 2   
    53    23    32 1   
    54    23    57 1   
    55    24    25 1   
    56    24    32 1   
    57    24    36 2   
    58    25    33 1   
    59    25    58 1   
    60    25    59 1   
    61    26    60 1   
    62    27    29 ar  
    63    28    29 ar  
    64    28    61 1   
    65    29    62 1   
    66    30    34 1   
    67    30    66 1   
    68    30    67 1   
    69    30    68 1   
    70    31    69 1   
    71    32    70 1   
    72    33    71 1   
    73    34    72 1   
    74    63    74 1   
    75    64    74 1   
    76    65    74 1   
@<TRIPOS>SUBSTRUCTURE
     1 L4X         1 TEMP              0 ****  ****    0 ROOT
