@<TRIPOS>MOLECULE
L4X
   74    76     1     0     0
SMALL
No Charge or Current Charge


@<TRIPOS>ATOM
      1 C11          0.0130     2.8130   -20.7250 c3         1 L4X       0.205100
      2 C12          0.8590     2.5390   -21.9670 ca         1 L4X      -0.093300
      3 C13          0.8420     3.4310   -23.0590 ca         1 L4X      -0.101500
      4 C14          1.6260     3.1730   -24.1980 ca         1 L4X      -0.115000
      5 C15          2.4370     2.0270   -24.2500 ca         1 L4X      -0.111000
      6 C16          2.4640     1.1390   -23.1630 ca         1 L4X      -0.115000
      7 C17          1.6750     1.3910   -22.0270 ca         1 L4X      -0.101500
      8 C19         -0.0900    -2.4480   -21.4470 c3         1 L4X      -0.058200
      9 C21          1.7970    -2.8130   -23.1270 ce         1 L4X      -0.159200
     10 C22          2.6460    -2.4400   -24.2960 ca         1 L4X      -0.046800
     11 C23          2.1900    -1.5500   -25.2930 ca         1 L4X      -0.101500
     12 C24          3.0210    -1.2050   -26.3730 ca         1 L4X      -0.115000
     13 C25          4.3100    -1.7520   -26.4740 ca         1 L4X      -0.113000
     14 C26          4.7670    -2.6490   -25.4940 ca         1 L4X      -0.115000
     15 C27          3.9370    -2.9910   -24.4120 ca         1 L4X      -0.101500
     16 C29         -2.0150    -6.5220   -23.5860 c3         1 L4X      -0.036100
     17 C31         -1.5200    -5.3690   -25.8020 ca         1 L4X      -0.097500
     18 C32         -0.6220    -4.8450   -26.7480 ca         1 L4X      -0.107000
     19 C33          0.7620    -4.8660   -26.5020 ca         1 L4X      -0.063300
     20 C02         -4.1060    -6.2590   -22.1300 c          1 L4X       0.585100
     21 C03         -3.0650    -5.5240   -23.0330 c3         1 L4X       0.031700
     22 C05         -2.2460    -3.1410   -22.6850 c          1 L4X       0.602100
     23 C06         -1.6090    -2.1860   -21.6340 c3         1 L4X       0.036700
     24 C08         -1.8320     0.2890   -21.1110 c          1 L4X       0.563100
     25 C09         -2.0130     1.6920   -21.7750 c3         1 L4X       0.087800
     26 C20          0.7520    -2.0950   -22.6610 c2         1 L4X      -0.205200
     27 C30         -1.0440    -5.9130   -24.5930 ca         1 L4X      -0.087300
     28 C34          1.2400    -5.4120   -25.2960 ca         1 L4X      -0.107000
     29 C35          0.3430    -5.9290   -24.3460 ca         1 L4X      -0.097500
     30 C38         -5.5110    -6.8740   -24.1490 c3         1 L4X       0.093300
     31 N04         -2.4040    -4.4450   -22.2600 ns         1 L4X      -0.483900
     32 N07         -1.8670    -0.7720   -21.9910 ns         1 L4X      -0.495900
     33 N10         -1.4400     2.8630   -21.0210 n7         1 L4X      -0.855400
     34 N37         -5.1140    -6.9750   -22.7410 ns         1 L4X      -0.503900
     35 O01         -4.0390    -6.2500   -20.9090 o          1 L4X      -0.610100
     36 O18         -1.6740     0.1230   -19.9060 o          1 L4X      -0.618100
     37 H1           0.2210     2.0380   -19.9750 h1         1 L4X       0.047200
     38 H2           0.3370     3.7670   -20.2860 h1         1 L4X       0.047200
     39 H3           0.2160     4.3200   -23.0240 ha         1 L4X       0.118500
     40 H4           1.6050     3.8630   -25.0390 ha         1 L4X       0.115000
     41 H5           3.0450     1.8290   -25.1300 ha         1 L4X       0.111000
     42 H6           3.0960     0.2550   -23.1990 ha         1 L4X       0.115000
     43 H7           1.7010     0.6930   -21.1930 ha         1 L4X       0.118500
     44 H8           0.0600    -3.5000   -21.1750 hc         1 L4X       0.062700
     45 H9           0.2620    -1.8660   -20.5860 hc         1 L4X       0.062700
     46 H10          2.0960    -3.7310   -22.6190 ha         1 L4X       0.169000
     47 H11          1.1920    -1.1260   -25.2440 ha         1 L4X       0.115000
     48 H12          2.6620    -0.5160   -27.1350 ha         1 L4X       0.112500
     49 H13          4.9520    -1.4860   -27.3110 ha         1 L4X       0.112000
     50 H14          5.7640    -3.0770   -25.5710 ha         1 L4X       0.112500
     51 H15          4.3040    -3.6810   -23.6550 ha         1 L4X       0.115000
     52 H16         -2.5320    -7.3620   -24.0630 hc         1 L4X       0.057200
     53 H17         -1.4670    -6.9570   -22.7410 hc         1 L4X       0.057200
     54 H18         -2.5860    -5.3580   -26.0150 ha         1 L4X       0.105500
     55 H19         -1.0040    -4.4290   -27.6770 ha         1 L4X       0.110500
     56 H20         -3.6150    -5.0760   -23.8680 h1         1 L4X       0.096700
     57 H21         -2.1150    -2.3960   -20.6820 h1         1 L4X       0.087700
     58 H22         -1.5610     1.6330   -22.7740 h1         1 L4X       0.070700
     59 H23         -3.0910     1.8280   -21.9310 h1         1 L4X       0.070700
     60 H24          0.4740    -1.1570   -23.1410 ha         1 L4X       0.180000
     61 H25          2.3080    -5.4380   -25.0930 ha         1 L4X       0.110500
     62 H26          0.7300    -6.3510   -23.4210 ha         1 L4X       0.105500
     63 H27          1.4430    -3.2990   -27.8390 hc         1 L4X       0.044367
     64 H28          2.7540    -4.2730   -27.1580 hc         1 L4X       0.044367
     65 H29          1.7320    -4.9400   -28.4400 hc         1 L4X       0.044367
     66 H30         -6.4110    -7.4800   -24.3170 h1         1 L4X       0.042700
     67 H31         -5.7360    -5.8280   -24.3990 h1         1 L4X       0.042700
     68 H32         -4.7080    -7.2430   -24.7980 h1         1 L4X       0.042700
     69 H33         -2.1000    -4.6580   -21.3170 hn         1 L4X       0.332500
     70 H34         -2.0490    -0.5570   -22.9670 hn         1 L4X       0.338500
     71 H35         -1.9310     2.9330   -20.1180 hn         1 L4X       0.433000
     72 H37         -5.7310    -7.4740   -22.1100 hn         1 L4X       0.320500
     73 O28         -2.6300    -2.7640   -23.7860 o          1 L4X      -0.607100
     74 C36          1.7270    -4.3140   -27.5390 c3         1 L4X      -0.050800
@<TRIPOS>BOND
     1     1     2 1   
     2     1    33 1   
     3     1    37 1   
     4     1    38 1   
     5     2     3 ar  
     6     2     7 ar  
     7     3     4 ar  
     8     3    39 1   
     9     4     5 ar  
    10     4    40 1   
    11     5     6 ar  
    12     5    41 1   
    13     6     7 ar  
    14     6    42 1   
    15     7    43 1   
    16     8    23 1   
    17     8    26 1   
    18     8    44 1   
    19     8    45 1   
    20     9    10 1   
    21     9    26 2   
    22     9    46 1   
    23    10    11 ar  
    24    10    15 ar  
    25    11    12 ar  
    26    11    47 1   
    27    12    13 ar  
    28    12    48 1   
    29    13    14 ar  
    30    13    49 1   
    31    14    15 ar  
    32    14    50 1   
    33    15    51 1   
    34    16    21 1   
    35    16    27 1   
    36    16    52 1   
    37    16    53 1   
    38    17    18 ar  
    39    17    27 ar  
    40    17    54 1   
    41    18    19 ar  
    42    18    55 1   
    43    19    28 ar  
    44    19    74 1   
    45    20    21 1   
    46    20    34 1   
    47    20    35 2   
    48    21    31 1   
    49    21    56 1   
    50    22    23 1   
    51    22    31 1   
    52    22    73 2   
    53    23    32 1   
    54    23    57 1   
    55    24    25 1   
    56    24    32 1   
    57    24    36 2   
    58    25    33 1   
    59    25    58 1   
    60    25    59 1   
    61    26    60 1   
    62    27    29 ar  
    63    28    29 ar  
    64    28    61 1   
    65    29    62 1   
    66    30    34 1   
    67    30    66 1   
    68    30    67 1   
    69    30    68 1   
    70    31    69 1   
    71    32    70 1   
    72    33    71 1   
    73    34    72 1   
    74    63    74 1   
    75    64    74 1   
    76    65    74 1   
@<TRIPOS>SUBSTRUCTURE
     1 L4X         1 TEMP              0 ****  ****    0 ROOT
