@<TRIPOS>MOLECULE
L4Y
   48    51     1     0     0
SMALL
No Charge or Current Charge


@<TRIPOS>ATOM
      1 C4           6.0430    -0.4020     0.6430 c6         1 L4Y      -0.100700
      2 C14         -1.4540    -0.4120     0.2160 c3         1 L4Y      -0.011300
      3 C5           4.5690    -0.7040     0.7930 cc         1 L4Y       0.239300
      4 C6           3.5940     0.0790     0.1420 cc         1 L4Y      -0.107300
      5 C7           2.3730    -0.4410     0.4850 cd         1 L4Y      -0.223600
      6 C3           6.3390     0.4830    -0.5920 c6         1 L4Y      -0.073400
      7 C1           5.7830     2.6990    -1.7600 c3         1 L4Y      -0.087100
      8 C2           5.3890     1.7050    -0.6350 c6         1 L4Y      -0.063700
      9 N8           2.6880    -1.5120     1.3460 na         1 L4Y       0.003800
     10 N10          4.0610    -1.6680     1.5310 nd         1 L4Y      -0.499800
     11 O12          0.8750     0.9740    -0.7550 o          1 L4Y      -0.567100
     12 N13         -0.0240    -0.6720     0.5290 ns         1 L4Y      -0.486900
     13 C15         -1.7880    -0.7750    -1.2530 c3         1 L4Y       0.160600
     14 O16         -3.2090    -0.7990    -1.4580 os         1 L4Y      -0.345100
     15 C17         -3.9900     0.2110    -0.9590 ca         1 L4Y       0.069100
     16 C18         -4.4840     1.1930    -1.8320 ca         1 L4Y      -0.102000
     17 C19         -5.2930     2.2270    -1.3340 ca         1 L4Y      -0.110000
     18 C20         -5.5930     2.2790     0.0370 ca         1 L4Y      -0.095000
     19 C21         -5.1070     1.2840     0.9040 ca         1 L4Y      -0.117000
     20 C22         -4.3550     0.1980     0.4050 ca         1 L4Y      -0.055000
     21 N23         -3.7330    -0.7260     1.3230 n          1 L4Y      -0.220400
     22 C24         -2.3760    -1.1340     1.2380 c          1 L4Y       0.555000
     23 O25         -1.9220    -1.9920     1.9900 o          1 L4Y      -0.538000
     24 C26         -4.5480    -1.2520     2.4430 c3         1 L4Y       0.095300
     25 C27          3.9160     1.2400    -0.7810 c6         1 L4Y       0.002900
     26 H1           6.4040     0.1080     1.5470 hc         1 L4Y       0.056700
     27 H2           6.6210    -1.3330     0.5700 hc         1 L4Y       0.056700
     28 H3          -1.6360     0.6620     0.3490 h1         1 L4Y       0.103700
     29 H4           7.3860     0.8140    -0.5620 hc         1 L4Y       0.043200
     30 H5           6.2250    -0.1100    -1.5100 hc         1 L4Y       0.043200
     31 H6           5.7280     2.2270    -2.7490 hc         1 L4Y       0.034033
     32 H7           5.1180     3.5710    -1.7680 hc         1 L4Y       0.034033
     33 H8           6.8070     3.0660    -1.6230 hc         1 L4Y       0.034033
     34 H9           5.4890     2.2560     0.3110 hc         1 L4Y       0.049700
     35 H10          2.0320    -2.1410     1.8070 hn         1 L4Y       0.372000
     36 H11          0.1860    -1.4210     1.1760 hn         1 L4Y       0.315500
     37 H12         -1.3200    -0.0400    -1.9210 h1         1 L4Y       0.061200
     38 H13         -1.3640    -1.7590    -1.4930 h1         1 L4Y       0.061200
     39 H14         -4.2310     1.1580    -2.8890 ha         1 L4Y       0.129000
     40 H15         -5.6710     2.9960    -2.0050 ha         1 L4Y       0.121000
     41 H16         -6.1930     3.0970     0.4300 ha         1 L4Y       0.121000
     42 H17         -5.3230     1.3620     1.9680 ha         1 L4Y       0.127000
     43 H18         -4.4260    -2.3400     2.5190 h1         1 L4Y       0.048700
     44 H19         -4.2280    -0.7840     3.3830 h1         1 L4Y       0.048700
     45 H20         -5.6110    -1.0360     2.2760 h1         1 L4Y       0.048700
     46 H21          3.7240     0.9410    -1.8210 hc         1 L4Y       0.061700
     47 H22          3.2540     2.0930    -0.5810 hc         1 L4Y       0.061700
     48 C11          1.0400     0.0390     0.0150 c          1 L4Y       0.642700
@<TRIPOS>BOND
     1     1     3 1   
     2     1     6 1   
     3     1    26 1   
     4     1    27 1   
     5     2    12 1   
     6     2    13 1   
     7     2    22 1   
     8     2    28 1   
     9     3     4 1   
    10     3    10 2   
    11     4     5 2   
    12     4    25 1   
    13     5     9 1   
    14     5    48 1   
    15     6     8 1   
    16     6    29 1   
    17     6    30 1   
    18     7     8 1   
    19     7    31 1   
    20     7    32 1   
    21     7    33 1   
    22     8    25 1   
    23     8    34 1   
    24     9    10 1   
    25     9    35 1   
    26    11    48 2   
    27    12    36 1   
    28    12    48 1   
    29    13    14 1   
    30    13    37 1   
    31    13    38 1   
    32    14    15 1   
    33    15    16 ar  
    34    15    20 ar  
    35    16    17 ar  
    36    16    39 1   
    37    17    18 ar  
    38    17    40 1   
    39    18    19 ar  
    40    18    41 1   
    41    19    20 ar  
    42    19    42 1   
    43    20    21 1   
    44    21    22 1   
    45    21    24 1   
    46    22    23 2   
    47    24    43 1   
    48    24    44 1   
    49    24    45 1   
    50    25    46 1   
    51    25    47 1   
@<TRIPOS>SUBSTRUCTURE
     1 L4Y         1 TEMP              0 ****  ****    0 ROOT
