@<TRIPOS>MOLECULE
L4Y
   48    51     1     0     0
SMALL
abcg2


@<TRIPOS>ATOM
      1 C4           5.8850    -0.6630    -0.4480 c6         1 L4Y      -0.100700
      2 C14         -1.4680    -0.7030    -0.2420 c3         1 L4Y      -0.011300
      3 C5           4.4260    -0.9220    -0.6240 cc         1 L4Y       0.239300
      4 C6           3.4280     0.0330    -0.3640 cc         1 L4Y      -0.107300
      5 C7           2.2470    -0.6310    -0.6290 cd         1 L4Y      -0.223600
      6 C3           6.1270     0.8440    -0.3460 c6         1 L4Y      -0.073400
      7 C1           5.5360     2.9680     0.8880 c3         1 L4Y      -0.087100
      8 C2           5.1550     1.5180     0.6250 c6         1 L4Y      -0.063700
      9 N8           2.5950    -1.8830    -1.0090 na         1 L4Y       0.003800
     10 N10          3.9040    -2.0700    -1.0260 nd         1 L4Y      -0.499800
     11 O12          0.6210     1.0570    -0.5890 o          1 L4Y      -0.567100
     12 N13         -0.0950    -1.0820    -0.3970 ns         1 L4Y      -0.486900
     13 C15         -2.3490    -1.9160    -0.5600 c3         1 L4Y       0.160600
     14 O16         -3.6750    -1.7360    -0.1020 os         1 L4Y      -0.345100
     15 C17         -4.2420    -0.5390    -0.4160 ca         1 L4Y       0.069100
     16 C18         -5.1980    -0.4580    -1.4180 ca         1 L4Y      -0.102000
     17 C19         -5.8220     0.7520    -1.6830 ca         1 L4Y      -0.110000
     18 C20         -5.4740     1.8850    -0.9610 ca         1 L4Y      -0.095000
     19 C21         -4.5020     1.8100     0.0250 ca         1 L4Y      -0.117000
     20 C22         -3.8770     0.6000     0.3060 ca         1 L4Y      -0.055000
     21 N23         -2.9160     0.4990     1.3330 n          1 L4Y      -0.220400
     22 C24         -1.7470    -0.1690     1.1670 c          1 L4Y       0.555000
     23 O25         -0.9490    -0.3140     2.0720 o          1 L4Y      -0.538000
     24 C26         -3.1850     1.0940     2.6360 c3         1 L4Y       0.095300
     25 C27          3.7170     1.4200     0.1020 c6         1 L4Y       0.002900
     26 H1           6.2400    -1.1540     0.4640 hc         1 L4Y       0.056700
     27 H2           6.4570    -1.0920    -1.2730 hc         1 L4Y       0.056700
     28 H3          -1.6810     0.0900    -0.9630 h1         1 L4Y       0.103700
     29 H4           7.1570     1.0250    -0.0270 hc         1 L4Y       0.043200
     30 H5           6.0240     1.3010    -1.3360 hc         1 L4Y       0.043200
     31 H6           5.5090     3.5550    -0.0330 hc         1 L4Y       0.034033
     32 H7           4.8510     3.4350     1.5970 hc         1 L4Y       0.034033
     33 H8           6.5430     3.0430     1.3010 hc         1 L4Y       0.034033
     34 H9           5.2040     0.9740     1.5770 hc         1 L4Y       0.049700
     35 H10          1.9910    -2.6120    -1.3550 hn         1 L4Y       0.372000
     36 H11          0.1730    -1.9870    -0.0400 hn         1 L4Y       0.315500
     37 H12         -2.3240    -2.1070    -1.6380 h1         1 L4Y       0.061200
     38 H13         -1.9720    -2.8020    -0.0460 h1         1 L4Y       0.061200
     39 H14         -5.4650    -1.3510    -1.9690 ha         1 L4Y       0.129000
     40 H15         -6.5770     0.8080    -2.4560 ha         1 L4Y       0.121000
     41 H16         -5.9550     2.8320    -1.1650 ha         1 L4Y       0.121000
     42 H17         -4.2240     2.6980     0.5790 ha         1 L4Y       0.127000
     43 H18         -3.0830     0.3500     3.4240 h1         1 L4Y       0.048700
     44 H19         -2.5060     1.9200     2.8450 h1         1 L4Y       0.048700
     45 H20         -4.2040     1.4680     2.6520 h1         1 L4Y       0.048700
     46 H21          3.5870     2.1250    -0.7260 hc         1 L4Y       0.061700
     47 H22          3.0110     1.7320     0.8760 hc         1 L4Y       0.061700
     48 C11          0.8660    -0.1360    -0.5290 c          1 L4Y       0.642700
@<TRIPOS>BOND
     1     1     3 1   
     2     1     6 1   
     3     1    26 1   
     4     1    27 1   
     5     2    12 1   
     6     2    13 1   
     7     2    22 1   
     8     2    28 1   
     9     3     4 1   
    10     3    10 2   
    11     4     5 2   
    12     4    25 1   
    13     5     9 1   
    14     5    48 1   
    15     6     8 1   
    16     6    29 1   
    17     6    30 1   
    18     7     8 1   
    19     7    31 1   
    20     7    32 1   
    21     7    33 1   
    22     8    25 1   
    23     8    34 1   
    24     9    10 1   
    25     9    35 1   
    26    11    48 2   
    27    12    36 1   
    28    12    48 1   
    29    13    14 1   
    30    13    37 1   
    31    13    38 1   
    32    14    15 1   
    33    15    16 ar  
    34    15    20 ar  
    35    16    17 ar  
    36    16    39 1   
    37    17    18 ar  
    38    17    40 1   
    39    18    19 ar  
    40    18    41 1   
    41    19    20 ar  
    42    19    42 1   
    43    20    21 1   
    44    21    22 1   
    45    21    24 1   
    46    22    23 2   
    47    24    43 1   
    48    24    44 1   
    49    24    45 1   
    50    25    46 1   
    51    25    47 1   
@<TRIPOS>SUBSTRUCTURE
     1 L4Y         1 TEMP              0 ****  ****    0 ROOT
