@<TRIPOS>MOLECULE
L4Z
   22    22     1     0     0
SMALL
bcc


@<TRIPOS>ATOM
      1 C1          13.7210    42.8920    -7.4890 cc         1 L4Z       0.301600
      2 C2          13.0780    42.4760    -6.3080 cc         1 L4Z      -0.356300
      3 C3          12.2650    41.4300    -6.6880 cd         1 L4Z      -0.062600
      4 C4          11.3450    40.5810    -5.8690 c3         1 L4Z       0.161300
      5 C5          10.7610    38.1600    -6.1490 c          1 L4Z       1.012600
      6 N1          12.4480    41.2800    -8.0160 na         1 L4Z       0.134400
      7 N           11.6910    39.1860    -5.8880 ns         1 L4Z      -0.646900
      8 C           14.7100    43.9940    -7.6610 c3         1 L4Z      -0.106400
      9 O            9.6650    38.4960    -6.6490 o          1 L4Z      -0.845300
     10 N2          13.3310    42.1510    -8.5110 nd         1 L4Z      -0.562800
     11 O1          11.1470    37.0060    -5.8740 o          1 L4Z      -0.845300
     12 H1          13.1860    42.8820    -5.3150 ha         1 L4Z       0.144000
     13 H2          11.3440    40.9920    -4.8530 h1         1 L4Z       0.043700
     14 H3          10.3230    40.6730    -6.2380 h1         1 L4Z       0.043700
     15 H4          11.6430    40.7390    -9.8470 h1         1 L4Z       0.062700
     16 H5          12.5620    39.4540    -9.0430 h1         1 L4Z       0.062700
     17 H6          10.9570    39.8930    -8.4520 h1         1 L4Z       0.062700
     18 H7          12.4870    38.9230    -5.3300 hn         1 L4Z       0.264500
     19 H8          14.9790    44.1160    -8.7090 hc         1 L4Z       0.030367
     20 H9          14.3120    44.9440    -7.3020 hc         1 L4Z       0.030367
     21 H10         15.6260    43.7990    -7.1010 hc         1 L4Z       0.030367
     22 C6          11.8730    40.2840    -8.8860 c3         1 L4Z       0.036600
@<TRIPOS>BOND
     1     1     2 1   
     2     1     8 1   
     3     1    10 2   
     4     2     3 2   
     5     2    12 1   
     6     3     4 1   
     7     3     6 1   
     8     4     7 1   
     9     4    13 1   
    10     4    14 1   
    11     5     7 1   
    12     5     9 1   
    13     5    11 1   
    14     6    10 1   
    15     6    22 1   
    16     7    18 1   
    17     8    19 1   
    18     8    20 1   
    19     8    21 1   
    20    15    22 1   
    21    16    22 1   
    22    17    22 1   
@<TRIPOS>SUBSTRUCTURE
     1 L4Z         1 TEMP              0 ****  ****    0 ROOT
