@<TRIPOS>MOLECULE
L4Z
   22    22     1     0     0
SMALL
No Charge or Current Charge


@<TRIPOS>ATOM
      1 C1          13.7170    42.8390    -7.5170 cc         1 L4Z       0.236300
      2 C2          13.0330    42.3150    -6.4130 cc         1 L4Z      -0.273000
      3 C3          12.1700    41.3760    -6.8880 cd         1 L4Z      -0.113300
      4 C4          11.1870    40.4980    -6.1570 c3         1 L4Z       0.161300
      5 C5          11.0590    38.1250    -5.3700 c          1 L4Z       0.735000
      6 N1          12.3830    41.3800    -8.2740 na         1 L4Z       0.155800
      7 N           11.7460    39.1740    -5.8990 ns         1 L4Z      -0.579900
      8 C           14.7620    43.9100    -7.3870 c3         1 L4Z      -0.106400
      9 O            9.8860    38.2690    -5.0850 o          1 L4Z      -0.740000
     10 N2          13.3520    42.3010    -8.6630 nd         1 L4Z      -0.562800
     11 O1          11.6830    37.0940    -5.2180 o          1 L4Z      -0.740000
     12 H1          13.1790    42.6150    -5.3810 ha         1 L4Z       0.126000
     13 H2          10.9240    40.9660    -5.1980 h1         1 L4Z       0.043700
     14 H3          10.2700    40.3960    -6.7530 h1         1 L4Z       0.043700
     15 H4          12.1570    40.6740   -10.2550 h1         1 L4Z       0.062700
     16 H5          11.7840    39.4850    -8.9730 h1         1 L4Z       0.062700
     17 H6          10.6410    40.8180    -9.3170 h1         1 L4Z       0.062700
     18 H7          12.7190    39.0100    -6.1120 hn         1 L4Z       0.264500
     19 H8          15.1880    44.1760    -8.3620 hc         1 L4Z       0.030367
     20 H9          14.3320    44.8180    -6.9480 hc         1 L4Z       0.030367
     21 H10         15.5810    43.5760    -6.7410 hc         1 L4Z       0.030367
     22 C6          11.7000    40.5370    -9.2680 c3         1 L4Z       0.065900
@<TRIPOS>BOND
     1     1     2 1   
     2     1     8 1   
     3     1    10 2   
     4     2     3 2   
     5     2    12 1   
     6     3     4 1   
     7     3     6 1   
     8     4     7 1   
     9     4    13 1   
    10     4    14 1   
    11     5     7 1   
    12     5     9 1   
    13     5    11 1   
    14     6    10 1   
    15     6    22 1   
    16     7    18 1   
    17     8    19 1   
    18     8    20 1   
    19     8    21 1   
    20    15    22 1   
    21    16    22 1   
    22    17    22 1   
@<TRIPOS>SUBSTRUCTURE
     1 L4Z         1 TEMP              0 ****  ****    0 ROOT
