@<TRIPOS>MOLECULE
L50
   44    44     1     0     0
SMALL
No Charge or Current Charge


@<TRIPOS>ATOM
      1 O8          -0.4970     1.8270     1.2330 o          1 L50      -0.934833
      2 P5          -1.0120     1.9830    -0.1560 p5         1 L50       1.295500
      3 O7          -2.0820     3.0220    -0.1830 o          1 L50      -0.934833
      4 O6           0.0880     2.3750    -1.0830 o          1 L50      -0.934833
      5 C1          -1.7540     0.3880    -0.7520 c3         1 L50      -0.388400
      6 C2          -1.5710    -0.8970     0.1190 c3         1 L50      -0.004700
      7 C3          -2.8280    -1.8170     0.0550 c3         1 L50      -0.133400
      8 C4          -4.0740    -1.1790     0.7130 c          1 L50       0.620100
      9 N9          -5.1730    -0.7760    -0.1050 n          1 L50      -0.300300
     10 C11         -6.3980    -0.1720     0.4570 c3         1 L50       0.090300
     11 O10         -5.1600    -0.9440    -1.5390 oh         1 L50      -0.459100
     12 O12         -4.1340    -1.0560     1.9310 o          1 L50      -0.570100
     13 C13         -0.3070    -1.7290    -0.2570 c3         1 L50      -0.054400
     14 C14          1.0540    -1.0170    -0.0780 c3         1 L50      -0.070400
     15 C15          2.2570    -1.9450    -0.3570 c3         1 L50      -0.038100
     16 C16          3.5920    -1.2370    -0.1670 ca         1 L50      -0.045300
     17 C18          4.2090    -0.5810    -1.2490 ca         1 L50      -0.100500
     18 C20          5.4440     0.0700    -1.0730 ca         1 L50      -0.126500
     19 C21          6.0740     0.0710     0.1840 ca         1 L50      -0.123300
     20 C19          5.4550    -0.5810     1.2670 ca         1 L50      -0.126500
     21 C17          4.2210    -1.2320     1.0920 ca         1 L50      -0.100500
     22 C22          7.4080     0.7780     0.3750 c3         1 L50      -0.026800
     23 H3          -2.8190     0.6150    -0.8510 hc         1 L50       0.010700
     24 H4          -1.3980     0.1980    -1.7710 hc         1 L50       0.010700
     25 H5          -1.4630    -0.5950     1.1680 hc         1 L50       0.064700
     26 H6          -3.0120    -2.0820    -0.9910 hc         1 L50       0.032700
     27 H7          -2.6070    -2.7350     0.6130 hc         1 L50       0.032700
     28 H8          -6.1430     0.7520     0.9900 h1         1 L50       0.031367
     29 H9          -7.1110     0.0620    -0.3440 h1         1 L50       0.031367
     30 H10         -6.8670    -0.8750     1.1580 h1         1 L50       0.031367
     31 H11         -4.7410    -0.1250    -1.8910 ho         1 L50       0.438000
     32 H12         -0.2910    -2.6360     0.3600 hc         1 L50       0.016200
     33 H13         -0.3950    -2.0670    -1.2970 hc         1 L50       0.016200
     34 H14          1.1110    -0.1590    -0.7560 hc         1 L50       0.061200
     35 H15          1.1290    -0.6290     0.9450 hc         1 L50       0.061200
     36 H16          2.2000    -2.8180     0.3060 hc         1 L50       0.049700
     37 H17          2.1800    -2.3350    -1.3800 hc         1 L50       0.049700
     38 H18          3.7320    -0.5730    -2.2270 ha         1 L50       0.146000
     39 H19          5.9080     0.5750    -1.9180 ha         1 L50       0.088500
     40 H20          5.9290    -0.5840     2.2460 ha         1 L50       0.088500
     41 H21          3.7530    -1.7320     1.9380 ha         1 L50       0.146000
     42 H22          7.2570     1.8240     0.6680 hc         1 L50       0.019033
     43 H23          8.0090     0.2950     1.1540 hc         1 L50       0.019033
     44 H24          8.0000     0.7700    -0.5490 hc         1 L50       0.019033
@<TRIPOS>BOND
     1     1     2 1   
     2     2     3 1   
     3     2     4 1   
     4     2     5 1   
     5     5     6 1   
     6     5    23 1   
     7     5    24 1   
     8     6     7 1   
     9     6    13 1   
    10     6    25 1   
    11     7     8 1   
    12     7    26 1   
    13     7    27 1   
    14     8     9 1   
    15     8    12 2   
    16     9    10 1   
    17     9    11 1   
    18    10    28 1   
    19    10    29 1   
    20    10    30 1   
    21    11    31 1   
    22    13    14 1   
    23    13    32 1   
    24    13    33 1   
    25    14    15 1   
    26    14    34 1   
    27    14    35 1   
    28    15    16 1   
    29    15    36 1   
    30    15    37 1   
    31    16    17 ar  
    32    16    21 ar  
    33    17    18 ar  
    34    17    38 1   
    35    18    19 ar  
    36    18    39 1   
    37    19    20 ar  
    38    19    22 1   
    39    20    21 ar  
    40    20    40 1   
    41    21    41 1   
    42    22    42 1   
    43    22    43 1   
    44    22    44 1   
@<TRIPOS>SUBSTRUCTURE
     1 L50         1 TEMP              0 ****  ****    0 ROOT
