@<TRIPOS>MOLECULE
L50
   44    44     1     0     0
SMALL
bcc


@<TRIPOS>ATOM
      1 O8           0.2490     2.2210    -0.3910 o          1 L50      -0.934833
      2 P5          -0.2990     1.6210    -1.6950 p5         1 L50       1.137700
      3 O7          -0.9960     2.6630    -2.5900 o          1 L50      -0.934833
      4 O6           0.7150     0.7670    -2.4750 o          1 L50      -0.934833
      5 C1          -1.7070     0.4990    -1.1900 c3         1 L50      -0.230600
      6 C2          -1.4870    -0.5690    -0.1130 c3         1 L50      -0.004700
      7 C3          -2.7810    -1.3480     0.1400 c3         1 L50      -0.133400
      8 C4          -3.8870    -0.5170     0.7500 c          1 L50       0.687100
      9 N9          -5.1670    -0.8720     0.4630 n          1 L50      -0.367300
     10 C11         -6.3220    -0.2970     1.1080 c3         1 L50       0.090300
     11 O10         -5.3950    -2.1070    -0.0930 oh         1 L50      -0.420100
     12 O12         -3.6660     0.4410     1.4770 o          1 L50      -0.570100
     13 C13         -0.3630    -1.5500    -0.4840 c3         1 L50      -0.054400
     14 C14          0.9960    -1.1310     0.0690 c3         1 L50      -0.070400
     15 C15          2.1660    -1.7230    -0.7120 c3         1 L50      -0.038100
     16 C16          3.4810    -1.1410    -0.2780 ca         1 L50      -0.045300
     17 C18          3.7530     0.2040    -0.5310 ca         1 L50      -0.118500
     18 C20          4.9470     0.7780    -0.1190 ca         1 L50      -0.144500
     19 C21          5.9100     0.0330     0.5640 ca         1 L50      -0.123300
     20 C19          5.6360    -1.3090     0.8120 ca         1 L50      -0.144500
     21 C17          4.4410    -1.8860     0.3990 ca         1 L50      -0.118500
     22 C22          7.1880     0.6620     1.0410 c3         1 L50      -0.026800
     23 H3          -2.5190     1.1570    -0.8640 hc         1 L50       0.010700
     24 H4          -2.0770    -0.0060    -2.0930 hc         1 L50       0.010700
     25 H5          -1.2030    -0.0670     0.8180 hc         1 L50       0.064700
     26 H6          -3.1040    -1.8220    -0.7890 hc         1 L50       0.032700
     27 H7          -2.5920    -2.1710     0.8420 hc         1 L50       0.032700
     28 H8          -6.0970     0.7190     1.4170 h1         1 L50       0.031367
     29 H9          -7.1520    -0.2640     0.4030 h1         1 L50       0.031367
     30 H10         -6.6270    -0.8730     1.9850 h1         1 L50       0.031367
     31 H11         -5.6400    -1.9460    -1.0140 ho         1 L50       0.399000
     32 H12         -0.5990    -2.5600    -0.1310 hc         1 L50       0.016200
     33 H13         -0.2990    -1.6160    -1.5740 hc         1 L50       0.016200
     34 H14          1.0720    -0.0450     0.0320 hc         1 L50       0.061200
     35 H15          1.0720    -1.4160     1.1250 hc         1 L50       0.061200
     36 H16          2.1830    -2.8130    -0.6210 hc         1 L50       0.049700
     37 H17          1.9990    -1.4830    -1.7650 hc         1 L50       0.049700
     38 H18          3.0080     0.7930    -1.0570 ha         1 L50       0.164000
     39 H19          5.1370     1.8230    -0.3340 ha         1 L50       0.106500
     40 H20          6.3660    -1.9150     1.3370 ha         1 L50       0.106500
     41 H21          4.2560    -2.9330     0.6090 ha         1 L50       0.164000
     42 H22          7.1020     0.9920     2.0790 hc         1 L50       0.019033
     43 H23          8.0220    -0.0380     0.9940 hc         1 L50       0.019033
     44 H24          7.4510     1.5380     0.4470 hc         1 L50       0.019033
@<TRIPOS>BOND
     1     1     2 1   
     2     2     3 1   
     3     2     4 1   
     4     2     5 1   
     5     5     6 1   
     6     5    23 1   
     7     5    24 1   
     8     6     7 1   
     9     6    13 1   
    10     6    25 1   
    11     7     8 1   
    12     7    26 1   
    13     7    27 1   
    14     8     9 1   
    15     8    12 2   
    16     9    10 1   
    17     9    11 1   
    18    10    28 1   
    19    10    29 1   
    20    10    30 1   
    21    11    31 1   
    22    13    14 1   
    23    13    32 1   
    24    13    33 1   
    25    14    15 1   
    26    14    34 1   
    27    14    35 1   
    28    15    16 1   
    29    15    36 1   
    30    15    37 1   
    31    16    17 ar  
    32    16    21 ar  
    33    17    18 ar  
    34    17    38 1   
    35    18    19 ar  
    36    18    39 1   
    37    19    20 ar  
    38    19    22 1   
    39    20    21 ar  
    40    20    40 1   
    41    21    41 1   
    42    22    42 1   
    43    22    43 1   
    44    22    44 1   
@<TRIPOS>SUBSTRUCTURE
     1 L50         1 TEMP              0 ****  ****    0 ROOT
