@<TRIPOS>MOLECULE
L51
   69    73     1     0     0
SMALL
bcc


@<TRIPOS>ATOM
      1 CBJ         -5.8830     0.2080     0.4930 ca         1 L51      -0.134300
      2 CAT         -6.7070     0.5130    -0.6110 ca         1 L51      -0.202000
      3 CBB         -7.9050    -0.1430    -0.8160 ca         1 L51       0.151600
      4 NAE         -8.7480     0.1840    -1.8520 nv         1 L51      -0.828200
      5 CAN         -8.2920    -1.1530     0.1030 ca         1 L51      -0.164000
      6 CAQ         -7.4930    -1.4800     1.1590 ca         1 L51      -0.136300
      7 CBI         -6.2650    -0.8180     1.3910 ca         1 L51       0.386600
      8 NAU         -5.5170    -1.2080     2.4510 nb         1 L51      -0.677000
      9 CAH         -4.3850    -0.5820     2.6410 ca         1 L51       0.434200
     10 CAM         -3.9060     0.4640     1.8400 ca         1 L51      -0.319300
     11 CBF         -4.6470     0.8840     0.7540 ca         1 L51       0.212600
     12 NAY         -4.2750     1.9190    -0.0690 nu         1 L51      -0.649000
     13 CBD         -3.0470     2.5820    -0.0760 ca         1 L51       0.187600
     14 CAR         -1.8490     1.8700    -0.0150 ca         1 L51      -0.180000
     15 CAJ         -3.0340     3.9700    -0.2000 ca         1 L51      -0.206000
     16 CAG         -1.8200     4.6360    -0.2440 ca         1 L51      -0.071000
     17 CAI         -0.6250     3.9440    -0.1610 ca         1 L51      -0.212000
     18 CBC         -0.6360     2.5510    -0.0480 ca         1 L51       0.109600
     19 NAW          0.6060     1.9190     0.0590 ns         1 L51      -0.490100
     20 CAZ          0.9080     0.6250    -0.2580 c          1 L51       0.807100
     21 OAF          0.1160    -0.1840    -0.7000 o          1 L51      -0.584100
     22 NAX          2.2280     0.3260    -0.0230 ns         1 L51      -0.487100
     23 CBH          2.8000    -0.9060    -0.2680 cc         1 L51       0.075300
     24 CAS          2.2800    -2.1610    -0.4830 cd         1 L51      -0.310300
     25 CBG          3.4130    -3.0000    -0.5870 cd         1 L51       0.346600
     26 CBL          3.4160    -4.4830    -0.8480 c3         1 L51      -0.073300
     27 CAC          2.9400    -4.7330    -2.2850 c3         1 L51      -0.080433
     28 CAD          4.8170    -5.0670    -0.6710 c3         1 L51      -0.080433
     29 CAB          2.4570    -5.1760     0.1260 c3         1 L51      -0.080433
     30 NAV          4.5260    -2.3170    -0.4480 nc         1 L51      -0.509800
     31 NBK          4.1520    -1.0370    -0.2710 na         1 L51       0.126300
     32 CBE          5.1310    -0.0360    -0.0940 ca         1 L51       0.007800
     33 CAO          6.1460    -0.2250     0.8360 ca         1 L51      -0.124500
     34 CAK          7.1200     0.7480     0.9970 ca         1 L51      -0.122500
     35 CBA          7.0960     1.9270     0.2540 ca         1 L51      -0.071300
     36 CAA          8.1640     2.9680     0.4160 c3         1 L51      -0.048800
     37 CAL          6.0670     2.0980    -0.6690 ca         1 L51      -0.122500
     38 CAP          5.0980     1.1250    -0.8580 ca         1 L51      -0.124500
     39 HAT         -6.4030     1.2570    -1.3370 ha         1 L51       0.125000
     40 HNAE        -8.3350     0.6950    -2.6160 hn         1 L51       0.395300
     41 HNAA        -9.3600    -0.5490    -2.1730 hn         1 L51       0.395300
     42 HAN         -9.2310    -1.6720    -0.0460 ha         1 L51       0.133000
     43 HAQ         -7.7920    -2.2600     1.8480 ha         1 L51       0.149000
     44 HAH         -3.7900    -0.8960     3.4930 h4         1 L51       0.015100
     45 HAM         -2.9730     0.9370     2.1090 ha         1 L51       0.148000
     46 HNAY        -5.0300     2.4340    -0.4920 hn         1 L51       0.437800
     47 HAR         -1.8740     0.7940     0.0510 ha         1 L51       0.176000
     48 HAJ         -3.9640     4.5220    -0.2560 ha         1 L51       0.135000
     49 HAG         -1.8050     5.7140    -0.3360 ha         1 L51       0.133000
     50 HAI          0.3160     4.4790    -0.1910 ha         1 L51       0.129000
     51 HNAW         1.3740     2.5400     0.2620 hn         1 L51       0.315500
     52 HNAX         2.8060     1.0110     0.4410 hn         1 L51       0.325500
     53 HAS          1.2440    -2.4400    -0.5420 ha         1 L51       0.188000
     54 HAC          3.6070    -4.2630    -3.0110 hc         1 L51       0.037033
     55 HACA         2.9140    -5.8040    -2.4960 hc         1 L51       0.037033
     56 HACB         1.9360    -4.3370    -2.4480 hc         1 L51       0.037033
     57 HAD          5.1820    -4.9320     0.3480 hc         1 L51       0.037033
     58 HADA         4.7990    -6.1380    -0.8800 hc         1 L51       0.037033
     59 HADB         5.5380    -4.6070    -1.3470 hc         1 L51       0.037033
     60 HAB          1.4280    -4.8370    -0.0040 hc         1 L51       0.037033
     61 HABA         2.4690    -6.2550    -0.0380 hc         1 L51       0.037033
     62 HABB         2.7420    -4.9900     1.1630 hc         1 L51       0.037033
     63 HAO          6.1710    -1.1280     1.4310 ha         1 L51       0.150500
     64 HAK          7.9060     0.5900     1.7240 ha         1 L51       0.135500
     65 HAA          8.9340     2.8550    -0.3490 hc         1 L51       0.045700
     66 HAAA         7.7580     3.9750     0.3190 hc         1 L51       0.045700
     67 HAAB         8.6540     2.8920     1.3860 hc         1 L51       0.045700
     68 HAL          6.0280     3.0010    -1.2670 ha         1 L51       0.135500
     69 HAP          4.3330     1.2680    -1.6110 ha         1 L51       0.150500
@<TRIPOS>BOND
     1     1     2 ar  
     2     1     7 ar  
     3     1    11 ar  
     4     2     3 ar  
     5     2    39 1   
     6     3     4 1   
     7     3     5 ar  
     8     4    40 1   
     9     4    41 1   
    10     5     6 ar  
    11     5    42 1   
    12     6     7 ar  
    13     6    43 1   
    14     7     8 ar  
    15     8     9 ar  
    16     9    10 ar  
    17     9    44 1   
    18    10    11 ar  
    19    10    45 1   
    20    11    12 1   
    21    12    13 1   
    22    12    46 1   
    23    13    14 ar  
    24    13    15 ar  
    25    14    18 ar  
    26    14    47 1   
    27    15    16 ar  
    28    15    48 1   
    29    16    17 ar  
    30    16    49 1   
    31    17    18 ar  
    32    17    50 1   
    33    18    19 1   
    34    19    20 1   
    35    19    51 1   
    36    20    21 2   
    37    20    22 1   
    38    22    23 1   
    39    22    52 1   
    40    23    24 2   
    41    23    31 1   
    42    24    25 1   
    43    24    53 1   
    44    25    26 1   
    45    25    30 2   
    46    26    27 1   
    47    26    28 1   
    48    26    29 1   
    49    27    54 1   
    50    27    55 1   
    51    27    56 1   
    52    28    57 1   
    53    28    58 1   
    54    28    59 1   
    55    29    60 1   
    56    29    61 1   
    57    29    62 1   
    58    30    31 1   
    59    31    32 1   
    60    32    33 ar  
    61    32    38 ar  
    62    33    34 ar  
    63    33    63 1   
    64    34    35 ar  
    65    34    64 1   
    66    35    36 1   
    67    35    37 ar  
    68    36    65 1   
    69    36    66 1   
    70    36    67 1   
    71    37    38 ar  
    72    37    68 1   
    73    38    69 1   
@<TRIPOS>SUBSTRUCTURE
     1 L51         1 TEMP              0 ****  ****    0 ROOT
