@<TRIPOS>MOLECULE
L51
   69    73     1     0     0
SMALL
No Charge or Current Charge


@<TRIPOS>ATOM
      1 CBJ         -5.9740     0.1420     0.0880 ca         1 L51      -0.069000
      2 CAT         -6.7400     0.9830    -0.7620 ca         1 L51      -0.184000
      3 CBB         -7.8840     0.4920    -1.4050 ca         1 L51       0.290000
      4 NAE         -8.6120     1.3120    -2.2220 nv         1 L51      -1.077000
      5 CAN         -8.2760    -0.8360    -1.2110 ca         1 L51      -0.146000
      6 CAQ         -7.5230    -1.6780    -0.3750 ca         1 L51      -0.053000
      7 CBI         -6.3690    -1.2080     0.2820 ca         1 L51       0.256000
      8 NAU         -5.6750    -2.0530     1.0770 nb         1 L51      -0.677000
      9 CAH         -4.5750    -1.5950     1.7100 ca         1 L51       0.368900
     10 CAM         -4.1170    -0.2840     1.5780 ca         1 L51      -0.236000
     11 CBF         -4.8100     0.6030     0.7500 ca         1 L51       0.351000
     12 NAY         -4.3720     1.9290     0.6330 nu         1 L51      -0.981000
     13 CBD         -3.1250     2.5450     0.7450 ca         1 L51       0.326000
     14 CAR         -1.9310     1.8320     0.5410 ca         1 L51      -0.162000
     15 CAJ         -3.0750     3.9170     1.0240 ca         1 L51      -0.188000
     16 CAG         -1.8380     4.5740     1.1240 ca         1 L51      -0.053000
     17 CAI         -0.6480     3.8540     0.9380 ca         1 L51      -0.194000
     18 CBC         -0.6800     2.4780     0.6480 ca         1 L51       0.017000
     19 NAW          0.5630     1.8160     0.4580 ns         1 L51      -0.164000
     20 CAZ          0.8890     0.4740     0.3350 c          1 L51       0.673100
     21 OAF          0.0850    -0.4440     0.4100 o          1 L51      -0.584100
     22 NAX          2.2410     0.2860     0.1250 ns         1 L51      -0.420100
     23 CBH          2.9460    -0.9060    -0.0360 cc         1 L51       0.024600
     24 CAS          2.4940    -2.1920     0.0070 cd         1 L51      -0.227000
     25 CBG          3.6070    -3.0520    -0.1950 cd         1 L51       0.281300
     26 CBL          3.5520    -4.5810    -0.2230 c3         1 L51      -0.073300
     27 CAC          2.6030    -5.0320    -1.3630 c3         1 L51      -0.080433
     28 CAD          4.9520    -5.2200    -0.4630 c3         1 L51      -0.080433
     29 CAB          3.0040    -5.0920     1.1360 c3         1 L51      -0.080433
     30 NAV          4.7380    -2.3800    -0.3640 nc         1 L51      -0.509800
     31 NBK          4.3070    -1.0790    -0.2550 na         1 L51       0.177000
     32 CBE          5.2090    -0.0260    -0.4230 ca         1 L51       0.007800
     33 CAO          6.3280     0.0930     0.4250 ca         1 L51      -0.106500
     34 CAK          7.2320     1.1570     0.2610 ca         1 L51      -0.104500
     35 CBA          7.0290     2.1130    -0.7510 ca         1 L51      -0.071300
     36 CAA          8.0090     3.2620    -0.9300 c3         1 L51      -0.048800
     37 CAL          5.9160     1.9910    -1.6040 ca         1 L51      -0.104500
     38 CAP          5.0110     0.9270    -1.4420 ca         1 L51      -0.106500
     39 HAT         -6.4490     2.0140    -0.9340 ha         1 L51       0.107000
     40 HNAE        -8.2510     2.2310    -2.4720 hn         1 L51       0.450500
     41 HNAA        -9.3600     0.9270    -2.7970 hn         1 L51       0.450500
     42 HAN         -9.1630    -1.2240    -1.7060 ha         1 L51       0.115000
     43 HAQ         -7.8350    -2.7090    -0.2320 ha         1 L51       0.131000
     44 HAH         -4.0520    -2.3040     2.3500 h4         1 L51       0.015100
     45 HAM         -3.2440     0.0320     2.1360 ha         1 L51       0.130000
     46 HNAY        -5.1240     2.5810     0.4180 hn         1 L51       0.493000
     47 HAR         -1.9930     0.7860     0.2730 ha         1 L51       0.158000
     48 HAJ         -3.9930     4.4790     1.1700 ha         1 L51       0.117000
     49 HAG         -1.8030     5.6390     1.3450 ha         1 L51       0.115000
     50 HAI          0.3050     4.3720     1.0180 ha         1 L51       0.111000
     51 HNAW         1.3510     2.4470     0.4000 hn         1 L51       0.149000
     52 HNAX         2.7770     1.1440     0.0890 hn         1 L51       0.325500
     53 HAS          1.4730    -2.5170     0.1680 ha         1 L51       0.170000
     54 HAC          2.9590    -4.6640    -2.3330 hc         1 L51       0.037033
     55 HACA         2.5430    -6.1260    -1.4170 hc         1 L51       0.037033
     56 HACB         1.5870    -4.6490    -1.2090 hc         1 L51       0.037033
     57 HAD          5.6550    -4.9390     0.3310 hc         1 L51       0.037033
     58 HADA         4.8860    -6.3140    -0.4780 hc         1 L51       0.037033
     59 HADB         5.3730    -4.8980    -1.4230 hc         1 L51       0.037033
     60 HAB          1.9940    -4.7100     1.3250 hc         1 L51       0.037033
     61 HABA         2.9570    -6.1880     1.1540 hc         1 L51       0.037033
     62 HABB         3.6480    -4.7670     1.9610 hc         1 L51       0.037033
     63 HAO          6.4930    -0.6390     1.2120 ha         1 L51       0.132500
     64 HAK          8.0910     1.2380     0.9240 ha         1 L51       0.117500
     65 HAA          8.8130     2.9850    -1.6220 hc         1 L51       0.045700
     66 HAAA         7.5130     4.1530    -1.3320 hc         1 L51       0.045700
     67 HAAB         8.4710     3.5460     0.0240 hc         1 L51       0.045700
     68 HAL          5.7530     2.7190    -2.3970 ha         1 L51       0.117500
     69 HAP          4.1590     0.8400    -2.1140 ha         1 L51       0.132500
@<TRIPOS>BOND
     1     1     2 ar  
     2     1     7 ar  
     3     1    11 ar  
     4     2     3 ar  
     5     2    39 1   
     6     3     4 1   
     7     3     5 ar  
     8     4    40 1   
     9     4    41 1   
    10     5     6 ar  
    11     5    42 1   
    12     6     7 ar  
    13     6    43 1   
    14     7     8 ar  
    15     8     9 ar  
    16     9    10 ar  
    17     9    44 1   
    18    10    11 ar  
    19    10    45 1   
    20    11    12 1   
    21    12    13 1   
    22    12    46 1   
    23    13    14 ar  
    24    13    15 ar  
    25    14    18 ar  
    26    14    47 1   
    27    15    16 ar  
    28    15    48 1   
    29    16    17 ar  
    30    16    49 1   
    31    17    18 ar  
    32    17    50 1   
    33    18    19 1   
    34    19    20 1   
    35    19    51 1   
    36    20    21 2   
    37    20    22 1   
    38    22    23 1   
    39    22    52 1   
    40    23    24 2   
    41    23    31 1   
    42    24    25 1   
    43    24    53 1   
    44    25    26 1   
    45    25    30 2   
    46    26    27 1   
    47    26    28 1   
    48    26    29 1   
    49    27    54 1   
    50    27    55 1   
    51    27    56 1   
    52    28    57 1   
    53    28    58 1   
    54    28    59 1   
    55    29    60 1   
    56    29    61 1   
    57    29    62 1   
    58    30    31 1   
    59    31    32 1   
    60    32    33 ar  
    61    32    38 ar  
    62    33    34 ar  
    63    33    63 1   
    64    34    35 ar  
    65    34    64 1   
    66    35    36 1   
    67    35    37 ar  
    68    36    65 1   
    69    36    66 1   
    70    36    67 1   
    71    37    38 ar  
    72    37    68 1   
    73    38    69 1   
@<TRIPOS>SUBSTRUCTURE
     1 L51         1 TEMP              0 ****  ****    0 ROOT
