@<TRIPOS>MOLECULE
L54
   44    44     1     0     0
SMALL
No Charge or Current Charge


@<TRIPOS>ATOM
      1 O12         -3.4700     2.1050    -1.4500 o          1 L54      -0.622100
      2 C4          -4.1780     1.7580    -0.5100 c          1 L54       0.626100
      3 N9          -5.3220     2.5260    -0.1530 n          1 L54      -0.314300
      4 O10         -6.2030     2.1190     0.9180 oh         1 L54      -0.443100
      5 C11         -5.6840     3.7830    -0.8390 c3         1 L54       0.097300
      6 C3          -3.8920     0.4740     0.2930 c3         1 L54      -0.162400
      7 C2          -2.4730    -0.1470     0.1380 c3         1 L54      -0.001700
      8 C1          -2.4220    -1.6030     0.6950 c3         1 L54      -0.390400
      9 P5          -3.3880    -2.8980    -0.2110 p5         1 L54       1.295500
     10 O7          -2.7690    -4.2230     0.0750 o          1 L54      -0.932500
     11 O6          -4.7970    -2.8810     0.2760 o          1 L54      -0.932500
     12 O8          -3.3370    -2.6140    -1.6730 o          1 L54      -0.932500
     13 C13         -1.4060     0.7760     0.8040 c3         1 L54      -0.069400
     14 C14          0.0690     0.4240     0.4860 c3         1 L54      -0.067400
     15 C15          1.0700     1.4480     1.0610 c3         1 L54      -0.050100
     16 C16          2.5130     1.0830     0.7410 ca         1 L54      -0.010300
     17 C17          3.1180     1.5470    -0.4410 ca         1 L54      -0.116500
     18 C19          4.4490     1.2070    -0.7400 ca         1 L54      -0.064000
     19 C18          3.2520     0.2690     1.6180 ca         1 L54      -0.116500
     20 C20          4.5830    -0.0730     1.3220 ca         1 L54      -0.064000
     21 C21          5.1980     0.4000     0.1430 ca         1 L54      -0.223300
     22 C22          6.6470     0.0190    -0.1880 c3         1 L54       0.355300
     23 F25          7.2760     0.9700    -0.9160 f          1 L54      -0.124667
     24 F23          7.3950    -0.1720     0.9230 f          1 L54      -0.124667
     25 F24          6.7020    -1.1260    -0.9030 f          1 L54      -0.124667
     26 H1          -6.9070     1.5780     0.4890 ho         1 L54       0.443000
     27 H2          -6.5680     4.2330    -0.3700 h1         1 L54       0.027033
     28 H3          -4.8480     4.4920    -0.7750 h1         1 L54       0.027033
     29 H4          -5.9030     3.5770    -1.8940 h1         1 L54       0.027033
     30 H5          -4.1390     0.6470     1.3450 hc         1 L54       0.102700
     31 H6          -4.6770    -0.2280    -0.0020 hc         1 L54       0.102700
     32 H7          -2.2440    -0.1980    -0.9350 hc         1 L54       0.083700
     33 H8          -1.3910    -1.9690     0.6750 hc         1 L54       0.007700
     34 H9          -2.7380    -1.6110     1.7450 hc         1 L54       0.007700
     35 H12         -1.5770     1.8100     0.4830 hc         1 L54       0.004700
     36 H13         -1.5500     0.7670     1.8910 hc         1 L54       0.004700
     37 H14          0.3150    -0.5640     0.8910 hc         1 L54       0.057700
     38 H15          0.2010     0.3670    -0.6020 hc         1 L54       0.057700
     39 H16          0.8380     2.4440     0.6620 hc         1 L54       0.039200
     40 H17          0.9320     1.5150     2.1480 hc         1 L54       0.039200
     41 H18          2.5560     2.1690    -1.1320 ha         1 L54       0.124500
     42 H19          4.8920     1.5730    -1.6640 ha         1 L54       0.115000
     43 H20          2.7930    -0.1040     2.5310 ha         1 L54       0.124500
     44 H21          5.1310    -0.7100     2.0130 ha         1 L54       0.115000
@<TRIPOS>BOND
     1     1     2 2   
     2     2     3 1   
     3     2     6 1   
     4     3     4 1   
     5     3     5 1   
     6     4    26 1   
     7     5    27 1   
     8     5    28 1   
     9     5    29 1   
    10     6     7 1   
    11     6    30 1   
    12     6    31 1   
    13     7     8 1   
    14     7    13 1   
    15     7    32 1   
    16     8     9 1   
    17     8    33 1   
    18     8    34 1   
    19     9    10 1   
    20     9    11 1   
    21     9    12 1   
    22    13    14 1   
    23    13    35 1   
    24    13    36 1   
    25    14    15 1   
    26    14    37 1   
    27    14    38 1   
    28    15    16 1   
    29    15    39 1   
    30    15    40 1   
    31    16    17 ar  
    32    16    19 ar  
    33    17    18 ar  
    34    17    41 1   
    35    18    21 ar  
    36    18    42 1   
    37    19    20 ar  
    38    19    43 1   
    39    20    21 ar  
    40    20    44 1   
    41    21    22 1   
    42    22    23 1   
    43    22    24 1   
    44    22    25 1   
@<TRIPOS>SUBSTRUCTURE
     1 L54         1 TEMP              0 ****  ****    0 ROOT
