@<TRIPOS>MOLECULE
L54
   44    44     1     0     0
SMALL
bcc


@<TRIPOS>ATOM
      1 O12         -3.3560     1.9690    -1.5050 o          1 L54      -0.622100
      2 C4          -4.0790     1.6940    -0.5550 c          1 L54       0.693100
      3 N9          -5.1880     2.4350    -0.3090 n          1 L54      -0.381300
      4 O10         -5.9400     2.1750     0.8050 oh         1 L54      -0.404100
      5 C11         -5.5710     3.6270    -1.0230 c3         1 L54       0.097300
      6 C3          -3.8430     0.5120     0.3540 c3         1 L54      -0.162400
      7 C2          -2.4580    -0.1160     0.2140 c3         1 L54      -0.001700
      8 C1          -2.4520    -1.5080     0.8510 c3         1 L54      -0.232600
      9 P5          -3.3860    -2.8400    -0.0620 p5         1 L54       1.137700
     10 O7          -3.0910    -4.1200     0.7350 o          1 L54      -0.932500
     11 O6          -4.8750    -2.4440    -0.0280 o          1 L54      -0.932500
     12 O8          -2.7940    -2.8450    -1.4790 o          1 L54      -0.932500
     13 C13         -1.4010     0.8040     0.8380 c3         1 L54      -0.069400
     14 C14          0.0350     0.4660     0.4560 c3         1 L54      -0.067400
     15 C15          1.0470     1.3370     1.2040 c3         1 L54      -0.050100
     16 C16          2.4630     1.0310     0.8130 ca         1 L54      -0.010300
     17 C17          3.0840     1.7240    -0.2230 ca         1 L54      -0.134500
     18 C19          4.3820     1.4290    -0.6070 ca         1 L54      -0.082000
     19 C18          3.1790     0.0210     1.4510 ca         1 L54      -0.134500
     20 C20          4.4770    -0.2840     1.0770 ca         1 L54      -0.082000
     21 C21          5.0870     0.4250     0.0470 ca         1 L54      -0.223300
     22 C22          6.4730     0.0750    -0.3850 c3         1 L54       0.719200
     23 F25          7.1230     1.1220    -0.9090 f          1 L54      -0.245967
     24 F23          7.2210    -0.3850     0.6260 f          1 L54      -0.245967
     25 F24          6.4760    -0.8840    -1.3270 f          1 L54      -0.245967
     26 H1          -6.6670     1.6030     0.5200 ho         1 L54       0.404000
     27 H2          -6.5830     3.5290    -1.4190 h1         1 L54       0.027033
     28 H3          -5.5330     4.5000    -0.3690 h1         1 L54       0.027033
     29 H4          -4.8890     3.7820    -1.8520 h1         1 L54       0.027033
     30 H5          -4.0110     0.7940     1.3970 hc         1 L54       0.102700
     31 H6          -4.5960    -0.2530     0.1310 hc         1 L54       0.102700
     32 H7          -2.2290    -0.2350    -0.8490 hc         1 L54       0.083700
     33 H8          -1.4170    -1.8550     0.9440 hc         1 L54       0.007700
     34 H9          -2.8240    -1.4290     1.8810 hc         1 L54       0.007700
     35 H12         -1.5890     1.8430     0.5500 hc         1 L54       0.004700
     36 H13         -1.5050     0.7670     1.9290 hc         1 L54       0.004700
     37 H14          0.2480    -0.5860     0.6650 hc         1 L54       0.057700
     38 H15          0.1660     0.6000    -0.6220 hc         1 L54       0.057700
     39 H16          0.8330     2.3910     1.0080 hc         1 L54       0.039200
     40 H17          0.9210     1.1860     2.2800 hc         1 L54       0.039200
     41 H18          2.5480     2.5150    -0.7340 ha         1 L54       0.142500
     42 H19          4.8340     1.9940    -1.4120 ha         1 L54       0.133000
     43 H20          2.7190    -0.5330     2.2610 ha         1 L54       0.142500
     44 H21          5.0060    -1.0710     1.6000 ha         1 L54       0.133000
@<TRIPOS>BOND
     1     1     2 2   
     2     2     3 1   
     3     2     6 1   
     4     3     4 1   
     5     3     5 1   
     6     4    26 1   
     7     5    27 1   
     8     5    28 1   
     9     5    29 1   
    10     6     7 1   
    11     6    30 1   
    12     6    31 1   
    13     7     8 1   
    14     7    13 1   
    15     7    32 1   
    16     8     9 1   
    17     8    33 1   
    18     8    34 1   
    19     9    10 1   
    20     9    11 1   
    21     9    12 1   
    22    13    14 1   
    23    13    35 1   
    24    13    36 1   
    25    14    15 1   
    26    14    37 1   
    27    14    38 1   
    28    15    16 1   
    29    15    39 1   
    30    15    40 1   
    31    16    17 ar  
    32    16    19 ar  
    33    17    18 ar  
    34    17    41 1   
    35    18    21 ar  
    36    18    42 1   
    37    19    20 ar  
    38    19    43 1   
    39    20    21 ar  
    40    20    44 1   
    41    21    22 1   
    42    22    23 1   
    43    22    24 1   
    44    22    25 1   
@<TRIPOS>SUBSTRUCTURE
     1 L54         1 TEMP              0 ****  ****    0 ROOT
