@<TRIPOS>MOLECULE
L55
   62    65     1     0     0
SMALL
bcc


@<TRIPOS>ATOM
      1 N01         -2.9550     1.2740    -0.5640 ns         1 L55      -0.468100
      2 C02         -1.9090     2.1170    -0.9570 ca         1 L55       0.066600
      3 C03         -0.8440     2.2430    -0.0630 ca         1 L55      -0.160000
      4 C04          0.2460     3.0490    -0.3530 ca         1 L55      -0.067300
      5 C05          0.2820     3.7410    -1.5590 ca         1 L55      -0.124000
      6 C06         -0.7710     3.6160    -2.4500 ca         1 L55      -0.108000
      7 C07         -1.8670     2.8120    -2.1650 ca         1 L55      -0.135000
      8 C08          1.3870     3.1420     0.6140 c3         1 L55       0.187700
      9 O09          2.3500     2.1750     0.2200 os         1 L55      -0.314900
     10 C10          3.4670     2.0370     0.9630 ca         1 L55       0.168100
     11 C11          3.7680     2.8180     2.0730 ca         1 L55      -0.250000
     12 C12          4.9570     2.5750     2.7520 ca         1 L55      -0.063000
     13 C13          5.8300     1.5860     2.3480 ca         1 L55      -0.227000
     14 C14          5.5210     0.8020     1.2290 ca         1 L55       0.112600
     15 C15          4.3370     1.0290     0.5390 ca         1 L55      -0.191000
     16 N16          6.4490    -0.1850     0.8880 ns         1 L55      -0.468100
     17 C17          6.4750    -1.0130    -0.1910 c          1 L55       0.730700
     18 O18          5.6180    -1.0260    -1.0610 o          1 L55      -0.589100
     19 C19          7.6300    -1.9150    -0.2430 cc         1 L55      -0.360900
     20 C20          8.7570    -2.0520     0.5950 cc         1 L55       0.335200
     21 N21          9.5580    -3.0000     0.1620 nd         1 L55      -0.522800
     22 N22          8.9800    -3.4810    -0.9400 na         1 L55       0.113400
     23 C23          7.8310    -2.8660    -1.2270 cd         1 L55      -0.057300
     24 C24          9.6180    -4.5450    -1.6790 c3         1 L55       0.040600
     25 C25         -4.1630     1.0840    -1.1420 c          1 L55       0.688100
     26 O26         -4.5580     1.6570    -2.1390 o          1 L55      -0.564100
     27 C27         -5.0070     0.0480    -0.4290 c3         1 L55      -0.128300
     28 S28         -6.7040     0.2230    -1.0230 ss         1 L55      -0.164400
     29 C29         -7.5210    -1.0180    -0.0880 ca         1 L55       0.748300
     30 N30         -8.8200    -1.0870    -0.3530 nb         1 L55      -0.721000
     31 C31         -9.5150    -2.0040     0.3120 ca         1 L55       0.472600
     32 C32         -8.8930    -2.8350     1.2400 ca         1 L55      -0.381600
     33 C33         -7.5310    -2.6820     1.4400 ca         1 L55       0.472600
     34 N34         -6.8410    -1.7580     0.7640 nb         1 L55      -0.721000
     35 C35         -6.7660    -3.5390     2.3930 c3         1 L55      -0.151400
     36 C36        -10.9720    -2.1250     0.0090 c3         1 L55      -0.151400
     37 H011        -2.7850     0.7610     0.2880 hn         1 L55       0.319500
     38 H031        -0.8700     1.7060     0.8790 ha         1 L55       0.128000
     39 H051         1.1250     4.3780    -1.7970 ha         1 L55       0.138000
     40 H061        -0.7500     4.1540    -3.3890 ha         1 L55       0.136000
     41 H071        -2.6690     2.7370    -2.8800 ha         1 L55       0.166000
     42 H081         1.8220     4.1470     0.5920 h1         1 L55       0.040700
     43 H082         1.0430     2.9480     1.6350 h1         1 L55       0.040700
     44 H111         3.1110     3.6030     2.4200 ha         1 L55       0.135000
     45 H121         5.2020     3.1760     3.6190 ha         1 L55       0.128000
     46 H131         6.7520     1.4200     2.8920 ha         1 L55       0.128000
     47 H151         4.0680     0.4400    -0.3230 ha         1 L55       0.181000
     48 H161         7.2190    -0.2630     1.5340 hn         1 L55       0.317500
     49 H201         9.0170    -1.5030     1.4880 h4         1 L55       0.037100
     50 H231         7.2290    -3.1430    -2.0770 h4         1 L55       0.191000
     51 H241         9.7360    -5.4210    -1.0470 h1         1 L55       0.061033
     52 H243         8.9980    -4.8040    -2.5320 h1         1 L55       0.061033
     53 H242        10.5950    -4.2210    -2.0330 h1         1 L55       0.061033
     54 H271        -4.6290    -0.9500    -0.6630 h1         1 L55       0.094700
     55 H272        -4.9630     0.1690     0.6530 h1         1 L55       0.094700
     56 H321        -9.4590    -3.5760     1.7860 ha         1 L55       0.150000
     57 H351        -6.1460    -4.2470     1.8410 hc         1 L55       0.057033
     58 H352        -6.0980    -2.9330     3.0050 hc         1 L55       0.057033
     59 H353        -7.4270    -4.1050     3.0450 hc         1 L55       0.057033
     60 H361       -11.1200    -2.8220    -0.8180 hc         1 L55       0.057033
     61 H363       -11.5270    -2.5080     0.8630 hc         1 L55       0.057033
     62 H362       -11.3900    -1.1660    -0.2890 hc         1 L55       0.057033
@<TRIPOS>BOND
     1     1     2 1   
     2     1    25 1   
     3     1    37 1   
     4     2     3 ar  
     5     2     7 ar  
     6     3     4 ar  
     7     3    38 1   
     8     4     5 ar  
     9     4     8 1   
    10     5     6 ar  
    11     5    39 1   
    12     6     7 ar  
    13     6    40 1   
    14     7    41 1   
    15     8     9 1   
    16     8    42 1   
    17     8    43 1   
    18     9    10 1   
    19    10    11 ar  
    20    10    15 ar  
    21    11    12 ar  
    22    11    44 1   
    23    12    13 ar  
    24    12    45 1   
    25    13    14 ar  
    26    13    46 1   
    27    14    15 ar  
    28    14    16 1   
    29    15    47 1   
    30    16    17 1   
    31    16    48 1   
    32    17    18 2   
    33    17    19 1   
    34    19    20 1   
    35    19    23 2   
    36    20    21 2   
    37    20    49 1   
    38    21    22 1   
    39    22    23 1   
    40    22    24 1   
    41    23    50 1   
    42    24    51 1   
    43    24    52 1   
    44    24    53 1   
    45    25    26 2   
    46    25    27 1   
    47    27    28 1   
    48    27    54 1   
    49    27    55 1   
    50    28    29 1   
    51    29    30 ar  
    52    29    34 ar  
    53    30    31 ar  
    54    31    32 ar  
    55    31    36 1   
    56    32    33 ar  
    57    32    56 1   
    58    33    34 ar  
    59    33    35 1   
    60    35    57 1   
    61    35    58 1   
    62    35    59 1   
    63    36    60 1   
    64    36    61 1   
    65    36    62 1   
@<TRIPOS>SUBSTRUCTURE
     1 L55         1 TEMP              0 ****  ****    0 ROOT
