@<TRIPOS>MOLECULE
L55
   62    65     1     0     0
SMALL
No Charge or Current Charge


@<TRIPOS>ATOM
      1 N01         -3.0920     1.5900    -0.6180 ns         1 L55      -0.142000
      2 C02         -1.9850     2.4260    -0.9390 ca         1 L55      -0.026000
      3 C03         -0.8970     2.4330    -0.0440 ca         1 L55      -0.142000
      4 C04          0.2380     3.2310    -0.2860 ca         1 L55      -0.067300
      5 C05          0.2850     4.0310    -1.4420 ca         1 L55      -0.106000
      6 C06         -0.7920     4.0340    -2.3420 ca         1 L55      -0.090000
      7 C07         -1.9230     3.2370    -2.0950 ca         1 L55      -0.117000
      8 C08          1.4050     3.2270     0.6930 c3         1 L55       0.210900
      9 O09          2.3430     2.2170     0.2840 os         1 L55      -0.338100
     10 C10          3.5100     1.9730     0.9780 ca         1 L55       0.168100
     11 C11          3.8680     2.6950     2.1360 ca         1 L55      -0.232000
     12 C12          5.0690     2.4010     2.7980 ca         1 L55      -0.045000
     13 C13          5.9120     1.3900     2.3080 ca         1 L55      -0.209000
     14 C14          5.5690     0.6620     1.1550 ca         1 L55       0.020000
     15 C15          4.3580     0.9650     0.4950 ca         1 L55      -0.173000
     16 N16          6.4750    -0.3440     0.7230 ns         1 L55      -0.142000
     17 C17          6.4520    -1.2290    -0.3470 c          1 L55       0.663700
     18 O18          5.5530    -1.2900    -1.1770 o          1 L55      -0.589100
     19 C19          7.6340    -2.1130    -0.4030 cc         1 L55      -0.295600
     20 C20          8.7180    -2.1340     0.4850 cc         1 L55       0.269900
     21 N21          9.6300    -3.0350     0.1830 nd         1 L55      -0.522800
     22 N22          9.1060    -3.6260    -0.9610 na         1 L55       0.134800
     23 C23          7.8770    -3.0750    -1.3410 cd         1 L55      -0.090000
     24 C24          9.8240    -4.7100    -1.6450 c3         1 L55       0.069900
     25 C25         -4.3030     1.3520    -1.2550 c          1 L55       0.621100
     26 O26         -4.6450     1.8830    -2.3060 o          1 L55      -0.564100
     27 C27         -5.1920     0.3430    -0.5080 c3         1 L55      -0.080400
     28 S28         -6.8250     0.0070    -1.3400 ss         1 L55      -0.212300
     29 C29         -7.6360    -1.1790    -0.2700 ca         1 L55       0.222300
     30 N30         -8.8610    -1.5940    -0.6580 nb         1 L55      -0.195000
     31 C31         -9.4880    -2.4860     0.1340 ca         1 L55       0.144300
     32 C32         -8.8880    -2.9650     1.3100 ca         1 L55      -0.233000
     33 C33         -7.6120    -2.4750     1.6350 ca         1 L55       0.144300
     34 N34         -6.9840    -1.5830     0.8430 nb         1 L55      -0.195000
     35 C35         -6.8750    -2.9310     2.8800 c3         1 L55      -0.151400
     36 C36        -10.8620    -2.9560    -0.3070 c3         1 L55      -0.151400
     37 H011        -2.9700     1.0700     0.2410 hn         1 L55       0.153000
     38 H031        -0.9310     1.8120     0.8480 ha         1 L55       0.110000
     39 H051         1.1570     4.6500    -1.6430 ha         1 L55       0.120000
     40 H061        -0.7510     4.6540    -3.2350 ha         1 L55       0.118000
     41 H071        -2.7350     3.2640    -2.8140 ha         1 L55       0.148000
     42 H081         1.8810     4.2170     0.6980 h1         1 L55       0.040700
     43 H082         1.0330     3.0220     1.7050 h1         1 L55       0.040700
     44 H111         3.2330     3.4800     2.5340 ha         1 L55       0.117000
     45 H121         5.3480     2.9550     3.6920 ha         1 L55       0.110000
     46 H131         6.8400     1.1730     2.8330 ha         1 L55       0.110000
     47 H151         4.0510     0.4310    -0.3970 ha         1 L55       0.163000
     48 H161         7.2930    -0.4290     1.3110 hn         1 L55       0.151000
     49 H201         8.8750    -1.5120     1.3560 h4         1 L55       0.037100
     50 H231         7.3110    -3.4020    -2.2070 h4         1 L55       0.173000
     51 H241         9.9550    -5.5530    -0.9560 h1         1 L55       0.061033
     52 H243         9.2510    -5.0420    -2.5190 h1         1 L55       0.061033
     53 H242        10.8060    -4.3500    -1.9710 h1         1 L55       0.061033
     54 H271        -4.6310    -0.5950    -0.4180 h1         1 L55       0.094700
     55 H272        -5.3720     0.7380     0.4990 h1         1 L55       0.094700
     56 H321        -9.3910    -3.6880     1.9450 ha         1 L55       0.132000
     57 H351        -6.1500    -3.7170     2.6380 hc         1 L55       0.057033
     58 H352        -6.3300    -2.1020     3.3470 hc         1 L55       0.057033
     59 H353        -7.5680    -3.3340     3.6280 hc         1 L55       0.057033
     60 H361       -10.7790    -3.7550    -1.0530 hc         1 L55       0.057033
     61 H363       -11.4400    -3.3460     0.5390 hc         1 L55       0.057033
     62 H362       -11.4400    -2.1380    -0.7520 hc         1 L55       0.057033
@<TRIPOS>BOND
     1     1     2 1   
     2     1    25 1   
     3     1    37 1   
     4     2     3 ar  
     5     2     7 ar  
     6     3     4 ar  
     7     3    38 1   
     8     4     5 ar  
     9     4     8 1   
    10     5     6 ar  
    11     5    39 1   
    12     6     7 ar  
    13     6    40 1   
    14     7    41 1   
    15     8     9 1   
    16     8    42 1   
    17     8    43 1   
    18     9    10 1   
    19    10    11 ar  
    20    10    15 ar  
    21    11    12 ar  
    22    11    44 1   
    23    12    13 ar  
    24    12    45 1   
    25    13    14 ar  
    26    13    46 1   
    27    14    15 ar  
    28    14    16 1   
    29    15    47 1   
    30    16    17 1   
    31    16    48 1   
    32    17    18 2   
    33    17    19 1   
    34    19    20 1   
    35    19    23 2   
    36    20    21 2   
    37    20    49 1   
    38    21    22 1   
    39    22    23 1   
    40    22    24 1   
    41    23    50 1   
    42    24    51 1   
    43    24    52 1   
    44    24    53 1   
    45    25    26 2   
    46    25    27 1   
    47    27    28 1   
    48    27    54 1   
    49    27    55 1   
    50    28    29 1   
    51    29    30 ar  
    52    29    34 ar  
    53    30    31 ar  
    54    31    32 ar  
    55    31    36 1   
    56    32    33 ar  
    57    32    56 1   
    58    33    34 ar  
    59    33    35 1   
    60    35    57 1   
    61    35    58 1   
    62    35    59 1   
    63    36    60 1   
    64    36    61 1   
    65    36    62 1   
@<TRIPOS>SUBSTRUCTURE
     1 L55         1 TEMP              0 ****  ****    0 ROOT
