@<TRIPOS>MOLECULE
L56
   44    44     1     0     0
SMALL
bcc


@<TRIPOS>ATOM
      1 O8           3.6990     1.1450    -0.8950 o          1 L56      -0.935833
      2 P5           2.2720     1.7200    -0.8890 p5         1 L56       1.143700
      3 O7           1.8430     2.2900     0.4740 o          1 L56      -0.935833
      4 O6           2.0130     2.6900    -2.0550 o          1 L56      -0.935833
      5 C1           1.1480     0.2790    -1.2470 c3         1 L56      -0.247600
      6 C2           0.9990    -0.7970    -0.1600 c3         1 L56       0.025300
      7 C3           2.3000    -1.0720     0.5940 c3         1 L56      -0.133400
      8 C4           3.4360    -1.5100    -0.2930 c          1 L56       0.741100
      9 N9           4.6930    -1.4990     0.2460 n          1 L56      -0.327300
     10 C11          5.8670    -1.4890    -0.5920 c3         1 L56       0.084300
     11 O10          4.8740    -0.7830     1.4100 oh         1 L56      -0.376100
     12 O12          3.2630    -2.0100    -1.3950 o          1 L56      -0.625100
     13 C13         -0.0800    -0.4370     0.8680 c3         1 L56      -0.077400
     14 C14         -1.4910    -0.3620     0.2970 c3         1 L56      -0.061400
     15 C15         -2.5630    -0.2920     1.3870 c3         1 L56      -0.043100
     16 C16         -3.9410    -0.1060     0.8150 ca         1 L56      -0.043300
     17 C18         -4.5050     1.1630     0.7110 ca         1 L56      -0.121000
     18 C20         -5.7600     1.3290     0.1390 ca         1 L56      -0.133000
     19 C21         -6.4630     0.2330    -0.3380 ca         1 L56      -0.152000
     20 C19         -5.9200    -1.0490    -0.2490 ca         1 L56      -0.092300
     21 C17         -4.6640    -1.1960     0.3330 ca         1 L56      -0.128000
     22 C22         -6.6630    -2.2350    -0.7920 c3         1 L56      -0.036800
     23 H3           0.1570     0.6670    -1.5010 hc         1 L56       0.020700
     24 H4           1.5150    -0.1900    -2.1640 hc         1 L56       0.020700
     25 H5           0.6800    -1.7320    -0.6370 hc         1 L56      -0.018300
     26 H6           2.5800    -0.1880     1.1610 hc         1 L56       0.056200
     27 H7           2.1320    -1.8710     1.3280 hc         1 L56       0.056200
     28 H8           6.1120    -0.4730    -0.9090 h1         1 L56       0.033700
     29 H9           6.7130    -1.9120    -0.0500 h1         1 L56       0.033700
     30 H10          5.6910    -2.0990    -1.4720 h1         1 L56       0.033700
     31 H11          5.0270    -1.4470     2.0930 ho         1 L56       0.352000
     32 H12         -0.0700    -1.1860     1.6700 hc         1 L56       0.039200
     33 H13          0.1860     0.5200     1.3240 hc         1 L56       0.039200
     34 H14         -1.5930     0.5110    -0.3540 hc         1 L56       0.043200
     35 H15         -1.6810    -1.2350    -0.3370 hc         1 L56       0.043200
     36 H16         -2.5260    -1.2060     1.9860 hc         1 L56       0.038700
     37 H17         -2.3360     0.5350     2.0660 hc         1 L56       0.038700
     38 H18         -3.9630     2.0240     1.0830 ha         1 L56       0.143000
     39 H19         -6.1930     2.3190     0.0680 ha         1 L56       0.116000
     40 H20         -7.4420     0.3740    -0.7810 ha         1 L56       0.107000
     41 H21         -4.2360    -2.1900     0.4200 ha         1 L56       0.125000
     42 H22         -6.5630    -2.2940    -1.8780 hc         1 L56       0.029367
     43 H23         -6.2850    -3.1700    -0.3800 hc         1 L56       0.029367
     44 H24         -7.7300    -2.1750    -0.5730 hc         1 L56       0.029367
@<TRIPOS>BOND
     1     1     2 1   
     2     2     3 1   
     3     2     4 1   
     4     2     5 1   
     5     5     6 1   
     6     5    23 1   
     7     5    24 1   
     8     6     7 1   
     9     6    13 1   
    10     6    25 1   
    11     7     8 1   
    12     7    26 1   
    13     7    27 1   
    14     8     9 1   
    15     8    12 2   
    16     9    10 1   
    17     9    11 1   
    18    10    28 1   
    19    10    29 1   
    20    10    30 1   
    21    11    31 1   
    22    13    14 1   
    23    13    32 1   
    24    13    33 1   
    25    14    15 1   
    26    14    34 1   
    27    14    35 1   
    28    15    16 1   
    29    15    36 1   
    30    15    37 1   
    31    16    17 ar  
    32    16    21 ar  
    33    17    18 ar  
    34    17    38 1   
    35    18    19 ar  
    36    18    39 1   
    37    19    20 ar  
    38    19    40 1   
    39    20    21 ar  
    40    20    22 1   
    41    21    41 1   
    42    22    42 1   
    43    22    43 1   
    44    22    44 1   
@<TRIPOS>SUBSTRUCTURE
     1 L56         1 TEMP              0 ****  ****    0 ROOT
