@<TRIPOS>MOLECULE
L56
   44    44     1     0     0
SMALL
No Charge or Current Charge


@<TRIPOS>ATOM
      1 O8           3.2790     2.1860    -0.4960 o          1 L56      -0.935833
      2 P5           1.8120     2.2650    -0.7470 p5         1 L56       1.301500
      3 O7           1.0950     2.7270     0.4740 o          1 L56      -0.935833
      4 O6           1.5450     3.2030    -1.8750 o          1 L56      -0.935833
      5 C1           1.2010     0.5940    -1.2580 c3         1 L56      -0.405400
      6 C2           1.0980    -0.5700    -0.2230 c3         1 L56       0.025300
      7 C3           2.4480    -0.9010     0.4750 c3         1 L56      -0.133400
      8 C4           3.5850    -1.4720    -0.4030 c          1 L56       0.674100
      9 N9           4.8800    -1.5820     0.1840 n          1 L56      -0.260300
     10 C11          6.0470    -2.1080    -0.5520 c3         1 L56       0.084300
     11 O10          5.1230    -1.2060     1.5560 oh         1 L56      -0.415100
     12 O12          3.3940    -1.8710    -1.5490 o          1 L56      -0.625100
     13 C13         -0.0370    -0.4030     0.8330 c3         1 L56      -0.077400
     14 C14         -1.4660    -0.2530     0.2540 c3         1 L56      -0.061400
     15 C15         -2.5620    -0.2530     1.3410 c3         1 L56      -0.043100
     16 C16         -3.9580    -0.1130     0.7490 ca         1 L56      -0.043300
     17 C18         -4.5390     1.1600     0.5910 ca         1 L56      -0.103000
     18 C20         -5.8250     1.2870     0.0390 ca         1 L56      -0.115000
     19 C21         -6.5370     0.1420    -0.3570 ca         1 L56      -0.134000
     20 C19         -5.9670    -1.1350    -0.2040 ca         1 L56      -0.092300
     21 C17         -4.6760    -1.2560     0.3480 ca         1 L56      -0.110000
     22 C22         -6.7330    -2.3750    -0.6370 c3         1 L56      -0.036800
     23 H3           0.2310     0.7480    -1.7390 hc         1 L56       0.020700
     24 H4           1.8730     0.2870    -2.0660 hc         1 L56       0.020700
     25 H5           0.8230    -1.4630    -0.7980 hc         1 L56      -0.018300
     26 H6           2.8290    -0.0510     1.0500 hc         1 L56       0.056200
     27 H7           2.3010    -1.6350     1.2760 hc         1 L56       0.056200
     28 H8           6.1970    -1.5240    -1.4700 h1         1 L56       0.033700
     29 H9           6.9500    -2.0380     0.0670 h1         1 L56       0.033700
     30 H10          5.8730    -3.1580    -0.8170 h1         1 L56       0.033700
     31 H11          4.9790    -2.0270     2.0760 ho         1 L56       0.391000
     32 H12         -0.0320    -1.2880     1.4820 hc         1 L56       0.039200
     33 H13          0.1820     0.4490     1.4850 hc         1 L56       0.039200
     34 H14         -1.5400     0.6820    -0.3120 hc         1 L56       0.043200
     35 H15         -1.6600    -1.0730    -0.4490 hc         1 L56       0.043200
     36 H16         -2.4940    -1.1810     1.9220 hc         1 L56       0.038700
     37 H17         -2.3680     0.5650     2.0470 hc         1 L56       0.038700
     38 H18         -3.9920     2.0510     0.8930 ha         1 L56       0.125000
     39 H19         -6.2690     2.2720    -0.0820 ha         1 L56       0.098000
     40 H20         -7.5310     0.2490    -0.7850 ha         1 L56       0.089000
     41 H21         -4.2290    -2.2410     0.4630 ha         1 L56       0.107000
     42 H22         -6.4930    -2.6390    -1.6740 hc         1 L56       0.029367
     43 H23         -6.4880    -3.2380    -0.0060 hc         1 L56       0.029367
     44 H24         -7.8170    -2.2190    -0.5730 hc         1 L56       0.029367
@<TRIPOS>BOND
     1     1     2 1   
     2     2     3 1   
     3     2     4 1   
     4     2     5 1   
     5     5     6 1   
     6     5    23 1   
     7     5    24 1   
     8     6     7 1   
     9     6    13 1   
    10     6    25 1   
    11     7     8 1   
    12     7    26 1   
    13     7    27 1   
    14     8     9 1   
    15     8    12 2   
    16     9    10 1   
    17     9    11 1   
    18    10    28 1   
    19    10    29 1   
    20    10    30 1   
    21    11    31 1   
    22    13    14 1   
    23    13    32 1   
    24    13    33 1   
    25    14    15 1   
    26    14    34 1   
    27    14    35 1   
    28    15    16 1   
    29    15    36 1   
    30    15    37 1   
    31    16    17 ar  
    32    16    21 ar  
    33    17    18 ar  
    34    17    38 1   
    35    18    19 ar  
    36    18    39 1   
    37    19    20 ar  
    38    19    40 1   
    39    20    21 ar  
    40    20    22 1   
    41    21    41 1   
    42    22    42 1   
    43    22    43 1   
    44    22    44 1   
@<TRIPOS>SUBSTRUCTURE
     1 L56         1 TEMP              0 ****  ****    0 ROOT
