@<TRIPOS>MOLECULE
L57
   31    32     1     0     0
SMALL
bcc


@<TRIPOS>ATOM
      1 CL1         -3.0850    -3.4510    -0.6580 cl         1 L57      -0.108400
      2 C06         -1.7860    -2.3370    -0.4760 ca         1 L57       0.026400
      3 C01         -0.7240    -2.3710    -1.3660 ca         1 L57      -0.130000
      4 C05         -1.7890    -1.4080     0.5590 ca         1 L57       0.029400
      5 CL2         -3.0940    -1.3540     1.6820 cl         1 L57      -0.091400
      6 C04         -0.7420    -0.5110     0.6950 ca         1 L57      -0.060000
      7 C03          0.3280    -0.5470    -0.1910 ca         1 L57      -0.108900
      8 C02          0.3290    -1.4850    -1.2190 ca         1 L57      -0.105000
      9 C07          1.4710     0.3870    -0.0440 ce         1 L57       0.394500
     10 N14          1.3700     1.6590    -0.0250 n2         1 L57      -0.397200
     11 O15          0.1130     2.1220    -0.2020 os         1 L57      -0.130300
     12 C16          0.0960     3.5360    -0.0640 c3         1 L57      -0.023600
     13 C17         -1.3160     4.0900    -0.3060 c          1 L57       0.935600
     14 O19         -2.2190     3.2950    -0.6050 o          1 L57      -0.818300
     15 O18         -1.3930     5.3270    -0.1730 o          1 L57      -0.818300
     16 C08          2.8330    -0.1690     0.0870 ca         1 L57      -0.097900
     17 C13          3.9490     0.5700    -0.3140 ca         1 L57      -0.109500
     18 C12          5.2260     0.0570    -0.1590 ca         1 L57      -0.139500
     19 C11          5.4120    -1.2030     0.3990 ca         1 L57      -0.137000
     20 C10          4.3100    -1.9460     0.7980 ca         1 L57      -0.139500
     21 C09          3.0290    -1.4350     0.6400 ca         1 L57      -0.109500
     22 H1          -0.7200    -3.0930    -2.1710 ha         1 L57       0.137000
     23 H2          -0.7620     0.1990     1.5090 ha         1 L57       0.168000
     24 H3           1.1550    -1.5280    -1.9170 ha         1 L57       0.138000
     25 H4           0.4300     3.8220     0.9400 h1         1 L57       0.022700
     26 H5           0.7920     3.9930    -0.7770 h1         1 L57       0.022700
     27 H7           3.8120     1.5460    -0.7610 ha         1 L57       0.143000
     28 H8           6.0800     0.6390    -0.4790 ha         1 L57       0.122500
     29 H9           6.4100    -1.6040     0.5180 ha         1 L57       0.119000
     30 H10          4.4450    -2.9260     1.2360 ha         1 L57       0.122500
     31 H11          2.1800    -2.0250     0.9630 ha         1 L57       0.143000
@<TRIPOS>BOND
     1     1     2 1   
     2     2     3 ar  
     3     2     4 ar  
     4     3     8 ar  
     5     3    22 1   
     6     4     5 1   
     7     4     6 ar  
     8     6     7 ar  
     9     6    23 1   
    10     7     8 ar  
    11     7     9 1   
    12     8    24 1   
    13     9    10 2   
    14     9    16 1   
    15    10    11 1   
    16    11    12 1   
    17    12    13 1   
    18    12    25 1   
    19    12    26 1   
    20    13    14 1   
    21    13    15 1   
    22    16    17 ar  
    23    16    21 ar  
    24    17    18 ar  
    25    17    27 1   
    26    18    19 ar  
    27    18    28 1   
    28    19    20 ar  
    29    19    29 1   
    30    20    21 ar  
    31    20    30 1   
    32    21    31 1   
@<TRIPOS>SUBSTRUCTURE
     1 L57         1 TEMP              0 ****  ****    0 ROOT
