@<TRIPOS>MOLECULE
L57
   31    32     1     0     0
SMALL
No Charge or Current Charge


@<TRIPOS>ATOM
      1 Cl1         -3.2370    -3.5020    -0.6730 cl         1 L57      -0.200000
      2 C06         -1.8930    -2.3910    -0.4030 ca         1 L57       0.118000
      3 C01         -0.7220    -2.5410    -1.1640 ca         1 L57      -0.112000
      4 C05         -1.9800    -1.3570     0.5500 ca         1 L57       0.121000
      5 Cl2         -3.4400    -1.1280     1.5150 cl         1 L57      -0.183000
      6 C04         -0.8930    -0.4870     0.7420 ca         1 L57      -0.042000
      7 C03          0.2990    -0.6450    -0.0000 ca         1 L57      -0.108900
      8 C02          0.3640    -1.6690    -0.9710 ca         1 L57      -0.087000
      9 C07          1.4450     0.3150     0.1700 ce         1 L57       0.394500
     10 N14          1.2400     1.5710     0.4420 n2         1 L57      -0.298700
     11 O15          0.1840     2.1640    -0.2860 os         1 L57      -0.252000
     12 C16          0.0320     3.5470     0.1030 c3         1 L57      -0.000400
     13 C17         -1.1170     4.2750    -0.6550 c          1 L57       0.725000
     14 O19         -1.7790     3.6630    -1.4860 o          1 L57      -0.713000
     15 O18         -1.3140     5.4530    -0.3860 o          1 L57      -0.713000
     16 C08          2.8530    -0.2090     0.1200 ca         1 L57      -0.097900
     17 C13          3.9230     0.6410    -0.2470 ca         1 L57      -0.091500
     18 C12          5.2460     0.1670    -0.2510 ca         1 L57      -0.121500
     19 C11          5.5230    -1.1550     0.1300 ca         1 L57      -0.119000
     20 C10          4.4750    -2.0010     0.5260 ca         1 L57      -0.121500
     21 C09          3.1510    -1.5290     0.5310 ca         1 L57      -0.091500
     22 H1          -0.6580    -3.3300    -1.9090 ha         1 L57       0.119000
     23 H2          -0.9780     0.3080     1.4790 ha         1 L57       0.150000
     24 H3           1.2550    -1.7880    -1.5840 ha         1 L57       0.120000
     25 H4          -0.1840     3.6180     1.1780 h1         1 L57       0.022700
     26 H5           0.9610     4.1010    -0.0920 h1         1 L57       0.022700
     27 H7           3.7300     1.6700    -0.5430 ha         1 L57       0.125000
     28 H8           6.0580     0.8270    -0.5480 ha         1 L57       0.104500
     29 H9           6.5470    -1.5210     0.1280 ha         1 L57       0.101000
     30 H10          4.6890    -3.0210     0.8370 ha         1 L57       0.104500
     31 H11          2.3580    -2.1950     0.8650 ha         1 L57       0.125000
@<TRIPOS>BOND
     1     1     2 1   
     2     2     3 ar  
     3     2     4 ar  
     4     3     8 ar  
     5     3    22 1   
     6     4     5 1   
     7     4     6 ar  
     8     6     7 ar  
     9     6    23 1   
    10     7     8 ar  
    11     7     9 1   
    12     8    24 1   
    13     9    10 2   
    14     9    16 1   
    15    10    11 1   
    16    11    12 1   
    17    12    13 1   
    18    12    25 1   
    19    12    26 1   
    20    13    14 1   
    21    13    15 1   
    22    16    17 ar  
    23    16    21 ar  
    24    17    18 ar  
    25    17    27 1   
    26    18    19 ar  
    27    18    28 1   
    28    19    20 ar  
    29    19    29 1   
    30    20    21 ar  
    31    20    30 1   
    32    21    31 1   
@<TRIPOS>SUBSTRUCTURE
     1 L57         1 TEMP              0 ****  ****    0 ROOT
