@<TRIPOS>MOLECULE
L58
   41    42     1     0     0
SMALL
bcc


@<TRIPOS>ATOM
      1 O2           5.2130    -1.9650    -0.6400 o          1 L58      -0.575100
      2 C15          5.8330    -0.9170    -0.6580 c          1 L58       0.671100
      3 N2           7.0420    -0.7690    -1.2140 ns         1 L58      -0.453400
      4 O3           7.7400    -1.8540    -1.6440 oh         1 L58      -0.371100
      5 C14          5.2980     0.3690    -0.0320 c3         1 L58      -0.011300
      6 C16          5.9700     0.5850     1.3420 c3         1 L58       0.145100
      7 O4           5.8490    -0.5620     2.1490 oh         1 L58      -0.583800
      8 C17          5.4630     1.8350     2.0400 c3         1 L58      -0.126100
      9 N1           3.8660     0.2510     0.0610 ns         1 L58      -0.564900
     10 C1           3.0250     1.2600    -0.2470 c          1 L58       0.683700
     11 O1           3.4120     2.3760    -0.5590 o          1 L58      -0.603100
     12 C2           1.5670     0.9360    -0.1960 ca         1 L58      -0.150600
     13 C7           1.0470    -0.1520     0.5010 ca         1 L58      -0.086500
     14 C6          -0.3150    -0.4030     0.5040 ca         1 L58      -0.127500
     15 C5          -1.1980     0.4250    -0.1890 cp         1 L58      -0.011000
     16 C4          -0.6730     1.5240    -0.8710 ca         1 L58      -0.127500
     17 C3           0.6860     1.7790    -0.8700 ca         1 L58      -0.086500
     18 C8          -2.6470     0.1500    -0.2040 cp         1 L58      -0.029000
     19 C13         -3.2890    -0.3940     0.9090 ca         1 L58      -0.115000
     20 C12         -4.6510    -0.6510     0.9000 ca         1 L58      -0.102500
     21 C11         -5.3870    -0.3620    -0.2400 ca         1 L58      -0.014900
     22 BR          -7.2420    -0.7070    -0.2640 br         1 L58      -0.093100
     23 C10         -4.7770     0.1770    -1.3630 ca         1 L58      -0.102500
     24 C9          -3.4140     0.4280    -1.3360 ca         1 L58      -0.115000
     25 H12          7.5540     0.1020    -1.2090 hn         1 L58       0.341500
     26 H13          7.5330    -1.9560    -2.5830 ho         1 L58       0.403000
     27 H1           5.5460     1.2230    -0.6660 h1         1 L58       0.091700
     28 H2           7.0420     0.7040     1.1560 h1         1 L58       0.070700
     29 H17          4.9370    -0.6300     2.4530 ho         1 L58       0.408000
     30 H15          4.4110     1.7420     2.3150 hc         1 L58       0.051033
     31 H14          6.0330     2.0110     2.9520 hc         1 L58       0.051033
     32 H16          5.5650     2.7120     1.4020 hc         1 L58       0.051033
     33 H3           3.5050    -0.6890     0.1220 hn         1 L58       0.340500
     34 H7           1.6880    -0.8160     1.0670 ha         1 L58       0.145000
     35 H6          -0.6850    -1.2680     1.0380 ha         1 L58       0.139000
     36 H5          -1.3320     2.2040    -1.3970 ha         1 L58       0.139000
     37 H4           1.0650     2.6420    -1.3990 ha         1 L58       0.145000
     38 H11         -2.7310    -0.6070     1.8120 ha         1 L58       0.137500
     39 H10         -5.1230    -1.0650     1.7810 ha         1 L58       0.149000
     40 H9          -5.3440     0.3990    -2.2560 ha         1 L58       0.149000
     41 H8          -2.9460     0.8290    -2.2250 ha         1 L58       0.137500
@<TRIPOS>BOND
     1     1     2 2   
     2     2     3 1   
     3     2     5 1   
     4     3     4 1   
     5     3    25 1   
     6     4    26 1   
     7     5     6 1   
     8     5     9 1   
     9     5    27 1   
    10     6     7 1   
    11     6     8 1   
    12     6    28 1   
    13     7    29 1   
    14     8    30 1   
    15     8    31 1   
    16     8    32 1   
    17     9    10 1   
    18     9    33 1   
    19    10    11 2   
    20    10    12 1   
    21    12    13 ar  
    22    12    17 ar  
    23    13    14 ar  
    24    13    34 1   
    25    14    15 ar  
    26    14    35 1   
    27    15    16 ar  
    28    15    18 1   
    29    16    17 ar  
    30    16    36 1   
    31    17    37 1   
    32    18    19 ar  
    33    18    24 ar  
    34    19    20 ar  
    35    19    38 1   
    36    20    21 ar  
    37    20    39 1   
    38    21    22 1   
    39    21    23 ar  
    40    23    24 ar  
    41    23    40 1   
    42    24    41 1   
@<TRIPOS>SUBSTRUCTURE
     1 L58         1 TEMP              0 ****  ****    0 ROOT
