@<TRIPOS>MOLECULE
L58
   41    42     1     0     0
SMALL
No Charge or Current Charge


@<TRIPOS>ATOM
      1 O2           5.3120    -2.1090    -0.6490 o          1 L58      -0.575100
      2 C15          5.9680    -1.0750    -0.5630 c          1 L58       0.604100
      3 N2           7.3070    -1.0190    -0.9430 ns         1 L58      -0.386400
      4 O3           8.0630    -2.2300    -1.1920 oh         1 L58      -0.410100
      5 C14          5.3610     0.2680    -0.0670 c3         1 L58      -0.011300
      6 C16          5.9550     0.6690     1.3170 c3         1 L58       0.168300
      7 O4           5.4410    -0.1880     2.3430 oh         1 L58      -0.646000
      8 C17          5.6660     2.1300     1.7150 c3         1 L58      -0.126100
      9 N1           3.8720     0.1860    -0.0560 ns         1 L58      -0.497900
     10 C1           3.0110     1.2140    -0.3820 c          1 L58       0.616700
     11 O1           3.4350     2.3140    -0.7070 o          1 L58      -0.603100
     12 C2           1.5280     0.9060    -0.3230 ca         1 L58      -0.150600
     13 C7           1.0310    -0.3640     0.0580 ca         1 L58      -0.068500
     14 C6          -0.3530    -0.6070     0.1010 ca         1 L58      -0.109500
     15 C5          -1.2910     0.3990    -0.2320 cp         1 L58      -0.011000
     16 C4          -0.7850     1.6650    -0.6110 ca         1 L58      -0.109500
     17 C3           0.5970     1.9150    -0.6550 ca         1 L58      -0.068500
     18 C8          -2.7650     0.1340    -0.1850 cp         1 L58      -0.029000
     19 C13         -3.3250    -0.7230     0.7970 ca         1 L58      -0.097000
     20 C12         -4.7080    -0.9720     0.8420 ca         1 L58      -0.084500
     21 C11         -5.5590    -0.3670    -0.0960 ca         1 L58      -0.014900
     22 Br          -7.4400    -0.7050    -0.0360 br         1 L58      -0.093100
     23 C10         -5.0310     0.4850    -1.0780 ca         1 L58      -0.084500
     24 C9          -3.6480     0.7330    -1.1210 ca         1 L58      -0.097000
     25 H12          7.8540    -0.1800    -0.7530 hn         1 L58       0.341500
     26 H13          8.4760    -2.0710    -2.0740 ho         1 L58       0.442000
     27 H1           5.6650     1.0230    -0.8040 h1         1 L58       0.091700
     28 H2           7.0480     0.5650     1.2640 h1         1 L58       0.070700
     29 H17          4.4800    -0.0020     2.4090 ho         1 L58       0.447000
     30 H15          4.5930     2.3040     1.8550 hc         1 L58       0.051033
     31 H14          6.1760     2.3790     2.6540 hc         1 L58       0.051033
     32 H16          6.0280     2.8180     0.9420 hc         1 L58       0.051033
     33 H3           3.4510    -0.7160     0.1350 hn         1 L58       0.340500
     34 H7           1.7000    -1.1790     0.3220 ha         1 L58       0.127000
     35 H6          -0.7010    -1.5980     0.3840 ha         1 L58       0.121000
     36 H5          -1.4700     2.4710    -0.8610 ha         1 L58       0.121000
     37 H4           0.9420     2.9050    -0.9490 ha         1 L58       0.127000
     38 H11         -2.6840    -1.1900     1.5400 ha         1 L58       0.119500
     39 H10         -5.1170    -1.6300     1.6050 ha         1 L58       0.131000
     40 H9          -5.6900     0.9510    -1.8070 ha         1 L58       0.131000
     41 H8          -3.2560     1.3860    -1.8970 ha         1 L58       0.119500
@<TRIPOS>BOND
     1     1     2 2   
     2     2     3 1   
     3     2     5 1   
     4     3     4 1   
     5     3    25 1   
     6     4    26 1   
     7     5     6 1   
     8     5     9 1   
     9     5    27 1   
    10     6     7 1   
    11     6     8 1   
    12     6    28 1   
    13     7    29 1   
    14     8    30 1   
    15     8    31 1   
    16     8    32 1   
    17     9    10 1   
    18     9    33 1   
    19    10    11 2   
    20    10    12 1   
    21    12    13 ar  
    22    12    17 ar  
    23    13    14 ar  
    24    13    34 1   
    25    14    15 ar  
    26    14    35 1   
    27    15    16 ar  
    28    15    18 1   
    29    16    17 ar  
    30    16    36 1   
    31    17    37 1   
    32    18    19 ar  
    33    18    24 ar  
    34    19    20 ar  
    35    19    38 1   
    36    20    21 ar  
    37    20    39 1   
    38    21    22 1   
    39    21    23 ar  
    40    23    24 ar  
    41    23    40 1   
    42    24    41 1   
@<TRIPOS>SUBSTRUCTURE
     1 L58         1 TEMP              0 ****  ****    0 ROOT
