@<TRIPOS>MOLECULE
L59
   43    44     1     0     0
SMALL
abcg2


@<TRIPOS>ATOM
      1 O2           4.6310    -2.1120     0.0870 o          1 L59      -0.577100
      2 C17          4.9540    -1.0530    -0.4210 c          1 L59       0.590100
      3 N2           5.8390    -0.9280    -1.4190 ns         1 L59      -0.379400
      4 O3           6.3430    -2.0340    -2.0260 oh         1 L59      -0.418100
      5 C16          4.3970     0.2730     0.0770 c3         1 L59      -0.013300
      6 C18          4.9700     0.6120     1.4690 c3         1 L59       0.173300
      7 O4           4.3760     1.7910     1.9540 oh         1 L59      -0.646000
      8 C19          6.4700     0.8300     1.4150 c3         1 L59      -0.093100
      9 N1           2.9580     0.1670     0.1300 ns         1 L59      -0.507900
     10 C1           2.1270     1.0150    -0.5130 c          1 L59       0.617700
     11 O1           2.5210     1.9540    -1.1870 o          1 L59      -0.591100
     12 C2           0.6650     0.7410    -0.3610 ca         1 L59      -0.149600
     13 C7          -0.2000     1.2850    -1.3100 ca         1 L59      -0.071000
     14 C6          -1.5620     1.0750    -1.2260 ca         1 L59      -0.100500
     15 C5          -2.0970     0.3230    -0.1750 ca         1 L59       0.061000
     16 C4          -1.2330    -0.2080     0.7870 ca         1 L59      -0.100500
     17 C3           0.1310     0.0010     0.6920 ca         1 L59      -0.071000
     18 C8          -3.4990     0.1040    -0.0880 cg         1 L59      -0.122000
     19 C9          -4.6910    -0.0790    -0.0230 ch         1 L59      -0.083000
     20 C10         -6.0950    -0.2930     0.0470 ca         1 L59       0.020000
     21 C15         -6.9650     0.4770    -0.7330 ca         1 L59      -0.084500
     22 C14         -8.3320     0.2650    -0.6640 ca         1 L59      -0.113000
     23 C13         -8.8460    -0.7140     0.1770 ca         1 L59      -0.098000
     24 C12         -7.9880    -1.4820     0.9540 ca         1 L59      -0.113000
     25 C11         -6.6190    -1.2760     0.8930 ca         1 L59      -0.084500
     26 H13          5.9730    -0.0620    -1.9220 hn         1 L59       0.345500
     27 H14          7.2070    -2.1960    -1.6240 ho         1 L59       0.445000
     28 H1           4.6460     1.0890    -0.6050 h1         1 L59       0.100700
     29 H2           4.7580    -0.2330     2.1390 h1         1 L59       0.044700
     30 H18          3.4490     1.6110     2.1390 ho         1 L59       0.450000
     31 H17          6.7310     1.6090     0.6970 hc         1 L59       0.048367
     32 H16          6.8450     1.1240     2.3940 hc         1 L59       0.048367
     33 H15          6.9930    -0.0810     1.1270 hc         1 L59       0.048367
     34 H3           2.5840    -0.6700     0.5500 hn         1 L59       0.333500
     35 H7           0.1970     1.8700    -2.1280 ha         1 L59       0.126000
     36 H6          -2.2200     1.4930    -1.9760 ha         1 L59       0.126000
     37 H5          -1.6330    -0.7780     1.6140 ha         1 L59       0.126000
     38 H4           0.7630    -0.4110     1.4680 ha         1 L59       0.126000
     39 H12         -6.5630     1.2390    -1.3880 ha         1 L59       0.119500
     40 H11         -8.9970     0.8640    -1.2710 ha         1 L59       0.116000
     41 H10         -9.9150    -0.8790     0.2270 ha         1 L59       0.115000
     42 H9          -8.3860    -2.2470     1.6090 ha         1 L59       0.116000
     43 H8          -5.9490    -1.8750     1.4950 ha         1 L59       0.119500
@<TRIPOS>BOND
     1     1     2 2   
     2     2     3 1   
     3     2     5 1   
     4     3     4 1   
     5     3    26 1   
     6     4    27 1   
     7     5     6 1   
     8     5     9 1   
     9     5    28 1   
    10     6     7 1   
    11     6     8 1   
    12     6    29 1   
    13     7    30 1   
    14     8    31 1   
    15     8    32 1   
    16     8    33 1   
    17     9    10 1   
    18     9    34 1   
    19    10    11 2   
    20    10    12 1   
    21    12    13 ar  
    22    12    17 ar  
    23    13    14 ar  
    24    13    35 1   
    25    14    15 ar  
    26    14    36 1   
    27    15    16 ar  
    28    15    18 1   
    29    16    17 ar  
    30    16    37 1   
    31    17    38 1   
    32    18    19 3   
    33    19    20 1   
    34    20    21 ar  
    35    20    25 ar  
    36    21    22 ar  
    37    21    39 1   
    38    22    23 ar  
    39    22    40 1   
    40    23    24 ar  
    41    23    41 1   
    42    24    25 ar  
    43    24    42 1   
    44    25    43 1   
@<TRIPOS>SUBSTRUCTURE
     1 L59         1 TEMP              0 ****  ****    0 ROOT
