@<TRIPOS>MOLECULE
L59
   43    44     1     0     0
SMALL
No Charge or Current Charge


@<TRIPOS>ATOM
      1 O2           4.4360    -2.1530     0.6010 o          1 L59      -0.577100
      2 C17          5.0050    -1.2600    -0.0180 c          1 L59       0.590100
      3 N2           6.1880    -1.4850    -0.7180 ns         1 L59      -0.379400
      4 O3           6.6700    -2.8320    -0.9510 oh         1 L59      -0.418100
      5 C16          4.4420     0.1880    -0.0940 c3         1 L59      -0.013300
      6 C18          5.0210     1.0990     1.0340 c3         1 L59       0.173300
      7 O4           4.6530     2.4580     0.7830 oh         1 L59      -0.646000
      8 C19          6.5570     1.0550     1.1890 c3         1 L59      -0.093100
      9 N1           2.9530     0.1230    -0.0330 ns         1 L59      -0.507900
     10 C1           2.0820     1.1170    -0.4220 c          1 L59       0.617700
     11 O1           2.5070     2.1900    -0.8240 o          1 L59      -0.591100
     12 C2           0.6010     0.8180    -0.3140 ca         1 L59      -0.149600
     13 C7          -0.3340     1.8070    -0.6990 ca         1 L59      -0.071000
     14 C6          -1.7160     1.5640    -0.6110 ca         1 L59      -0.100500
     15 C5          -2.1880     0.3300    -0.1380 ca         1 L59       0.061000
     16 C4          -1.2720    -0.6620     0.2480 ca         1 L59      -0.100500
     17 C3           0.1120    -0.4240     0.1630 ca         1 L59      -0.071000
     18 C8          -3.5980     0.0830    -0.0490 cg         1 L59      -0.122000
     19 C9          -4.8000    -0.1180     0.0180 ch         1 L59      -0.083000
     20 C10         -6.2060    -0.3430     0.0820 ca         1 L59       0.020000
     21 C15         -7.1020     0.6590    -0.3390 ca         1 L59      -0.084500
     22 C14         -8.4890     0.4370    -0.2750 ca         1 L59      -0.113000
     23 C13         -8.9850    -0.7860     0.2090 ca         1 L59      -0.098000
     24 C12         -8.0930    -1.7870     0.6300 ca         1 L59      -0.113000
     25 C11         -6.7060    -1.5660     0.5670 ca         1 L59      -0.084500
     26 H13          6.5440    -0.7670    -1.3480 hn         1 L59       0.345500
     27 H14          7.6160    -2.7930    -0.6730 ho         1 L59       0.445000
     28 H1           4.7380     0.5940    -1.0710 h1         1 L59       0.100700
     29 H2           4.5840     0.7710     1.9880 h1         1 L59       0.044700
     30 H18          3.8560     2.4250     0.1910 ho         1 L59       0.450000
     31 H17          7.0560     1.3000     0.2430 hc         1 L59       0.048367
     32 H16          6.8860     1.7790     1.9440 hc         1 L59       0.048367
     33 H15          6.8940     0.0650     1.5180 hc         1 L59       0.048367
     34 H3           2.5350    -0.7390     0.2990 hn         1 L59       0.333500
     35 H7           0.0080     2.7710    -1.0690 ha         1 L59       0.126000
     36 H6          -2.4180     2.3390    -0.9120 ha         1 L59       0.126000
     37 H5          -1.6300    -1.6210     0.6160 ha         1 L59       0.126000
     38 H4           0.7870    -1.2180     0.4720 ha         1 L59       0.126000
     39 H12         -6.7250     1.6080    -0.7150 ha         1 L59       0.119500
     40 H11         -9.1790     1.2130    -0.6010 ha         1 L59       0.116000
     41 H10        -10.0580    -0.9570     0.2580 ha         1 L59       0.115000
     42 H9          -8.4760    -2.7340     1.0050 ha         1 L59       0.116000
     43 H8          -6.0210    -2.3460     0.8940 ha         1 L59       0.119500
@<TRIPOS>BOND
     1     1     2 2   
     2     2     3 1   
     3     2     5 1   
     4     3     4 1   
     5     3    26 1   
     6     4    27 1   
     7     5     6 1   
     8     5     9 1   
     9     5    28 1   
    10     6     7 1   
    11     6     8 1   
    12     6    29 1   
    13     7    30 1   
    14     8    31 1   
    15     8    32 1   
    16     8    33 1   
    17     9    10 1   
    18     9    34 1   
    19    10    11 2   
    20    10    12 1   
    21    12    13 ar  
    22    12    17 ar  
    23    13    14 ar  
    24    13    35 1   
    25    14    15 ar  
    26    14    36 1   
    27    15    16 ar  
    28    15    18 1   
    29    16    17 ar  
    30    16    37 1   
    31    17    38 1   
    32    18    19 3   
    33    19    20 1   
    34    20    21 ar  
    35    20    25 ar  
    36    21    22 ar  
    37    21    39 1   
    38    22    23 ar  
    39    22    40 1   
    40    23    24 ar  
    41    23    41 1   
    42    24    25 ar  
    43    24    42 1   
    44    25    43 1   
@<TRIPOS>SUBSTRUCTURE
     1 L59         1 TEMP              0 ****  ****    0 ROOT
