@<TRIPOS>MOLECULE
L5A
   38    39     1     0     0
SMALL
No Charge or Current Charge


@<TRIPOS>ATOM
      1 C10          1.5660     0.3150    -0.0030 c5         1 L5A      -0.068700
      2 C11          3.0950     0.5290    -0.2070 c5         1 L5A      -0.038700
      3 C12          1.1370     1.7730     0.3250 c5         1 L5A      -0.073400
      4 C01         -2.6450    -1.4210     0.0380 ca         1 L5A      -0.114000
      5 C02         -3.5000    -0.5150    -0.6180 ca         1 L5A      -0.010300
      6 C03         -2.9430     0.4600    -1.4680 ca         1 L5A      -0.114000
      7 C04         -1.5520     0.5280    -1.6600 ca         1 L5A      -0.117500
      8 C05         -0.6990    -0.3800    -1.0040 ca         1 L5A      -0.100300
      9 C06         -1.2550    -1.3540    -0.1530 ca         1 L5A      -0.117500
     10 C07          0.8110    -0.3080    -1.2050 c3         1 L5A      -0.014100
     11 C08          3.9200    -0.7680    -0.4490 c3         1 L5A      -0.197400
     12 C09          5.4270    -0.4610    -0.5570 c          1 L5A       0.713000
     13 C13          2.2490     2.2810     1.2910 c5         1 L5A      -0.085400
     14 C14          3.4300     1.2760     1.1160 c5         1 L5A      -0.065400
     15 C18         -5.4220     0.2960     0.7720 c          1 L5A       0.723000
     16 O15          6.1090    -0.5260     0.4540 o          1 L5A      -0.752000
     17 O16          5.8730    -0.1440    -1.6500 o          1 L5A      -0.752000
     18 O19         -5.3920    -0.1900     1.8930 o          1 L5A      -0.733500
     19 O20         -5.6570     1.4760     0.5560 o          1 L5A      -0.733500
     20 H1           1.3790    -0.3410     0.8570 hc         1 L5A       0.049700
     21 H2           3.2810     1.1820    -1.0700 hc         1 L5A       0.054700
     22 H3           1.0990     2.3880    -0.5830 hc         1 L5A       0.035200
     23 H4           0.1420     1.8200     0.7820 hc         1 L5A       0.035200
     24 H5          -3.0590    -2.1790     0.6990 ha         1 L5A       0.099000
     25 H6          -3.5890     1.1700    -1.9800 ha         1 L5A       0.099000
     26 H7          -1.1390     1.2890    -2.3170 ha         1 L5A       0.092000
     27 H8          -0.6070    -2.0600     0.3610 ha         1 L5A       0.092000
     28 H9           1.0390     0.2620    -2.1150 hc         1 L5A       0.036700
     29 H10          1.1890    -1.3200    -1.3900 hc         1 L5A       0.036700
     30 H11          3.7290    -1.4330     0.4020 hc         1 L5A       0.019200
     31 H12          3.5670    -1.1760    -1.4040 hc         1 L5A       0.019200
     32 H13          2.5490     3.3040     1.0380 hc         1 L5A       0.021700
     33 H14          1.9030     2.2990     2.3310 hc         1 L5A       0.021700
     34 H15          3.4750     0.5810     1.9630 hc         1 L5A       0.038200
     35 H16          4.3980     1.7880     1.0720 hc         1 L5A       0.038200
     36 H17         -5.4780    -0.2260    -1.3380 hc         1 L5A       0.023700
     37 H18         -5.2540    -1.6400    -0.2040 hc         1 L5A       0.023700
     38 C17         -5.0110    -0.5910    -0.4150 c3         1 L5A      -0.182100
@<TRIPOS>BOND
     1     1     2 1   
     2     1     3 1   
     3     1    10 1   
     4     1    20 1   
     5     2    11 1   
     6     2    14 1   
     7     2    21 1   
     8     3    13 1   
     9     3    22 1   
    10     3    23 1   
    11     4     5 ar  
    12     4     9 ar  
    13     4    24 1   
    14     5     6 ar  
    15     5    38 1   
    16     6     7 ar  
    17     6    25 1   
    18     7     8 ar  
    19     7    26 1   
    20     8     9 ar  
    21     8    10 1   
    22     9    27 1   
    23    10    28 1   
    24    10    29 1   
    25    11    12 1   
    26    11    30 1   
    27    11    31 1   
    28    12    16 1   
    29    12    17 1   
    30    13    14 1   
    31    13    32 1   
    32    13    33 1   
    33    14    34 1   
    34    14    35 1   
    35    15    18 1   
    36    15    19 1   
    37    15    38 1   
    38    36    38 1   
    39    37    38 1   
@<TRIPOS>SUBSTRUCTURE
     1 L5A         1 TEMP              0 ****  ****    0 ROOT
