@<TRIPOS>MOLECULE
L5A
   38    39     1     0     0
SMALL
abcg2


@<TRIPOS>ATOM
      1 C10          1.5450     0.4270    -0.0840 c5         1 L5A      -0.068700
      2 C11          3.0790     0.4330    -0.2340 c5         1 L5A      -0.038700
      3 C12          1.1960     1.8820     0.2150 c5         1 L5A      -0.073400
      4 C01         -2.6010    -1.3790    -0.1750 ca         1 L5A      -0.114000
      5 C02         -3.4600    -0.4060    -0.6830 ca         1 L5A      -0.010300
      6 C03         -2.8920     0.6400    -1.4040 ca         1 L5A      -0.114000
      7 C04         -1.5190     0.7140    -1.6100 ca         1 L5A      -0.117500
      8 C05         -0.6630    -0.2590    -1.1040 ca         1 L5A      -0.100300
      9 C06         -1.2320    -1.3090    -0.3840 ca         1 L5A      -0.117500
     10 C07          0.8250    -0.1710    -1.2920 c3         1 L5A      -0.014100
     11 C08          3.7230    -0.8830     0.1690 c3         1 L5A      -0.197400
     12 C09          5.2360    -0.9740    -0.0940 c          1 L5A       0.713000
     13 C13          2.3060     2.3090     1.1700 c5         1 L5A      -0.085400
     14 C14          3.5680     1.6430     0.6010 c5         1 L5A      -0.065400
     15 C18         -5.3960    -0.0370     0.9610 c          1 L5A       0.723000
     16 O15          5.9000    -1.6920     0.6840 o          1 L5A      -0.752000
     17 O16          5.6830    -0.3530    -1.0800 o          1 L5A      -0.752000
     18 O19         -4.5480    -0.0470     1.8710 o          1 L5A      -0.733500
     19 O20         -6.6020     0.2610     1.0630 o          1 L5A      -0.733500
     20 H1           1.2820    -0.1690     0.8010 hc         1 L5A       0.049700
     21 H2           3.3130     0.6190    -1.2860 hc         1 L5A       0.054700
     22 H3           1.2420     2.4740    -0.7070 hc         1 L5A       0.035200
     23 H4           0.1940     2.0090     0.6290 hc         1 L5A       0.035200
     24 H5          -3.0100    -2.2170     0.3770 ha         1 L5A       0.099000
     25 H6          -3.5310     1.4110    -1.8210 ha         1 L5A       0.099000
     26 H7          -1.1090     1.5430    -2.1770 ha         1 L5A       0.092000
     27 H8          -0.5940    -2.0890     0.0180 ha         1 L5A       0.092000
     28 H9           1.0540     0.4360    -2.1740 hc         1 L5A       0.036700
     29 H10          1.2250    -1.1700    -1.4900 hc         1 L5A       0.036700
     30 H11          3.5210    -1.0830     1.2260 hc         1 L5A       0.019200
     31 H12          3.2460    -1.7040    -0.3830 hc         1 L5A       0.019200
     32 H13          2.4010     3.3930     1.2640 hc         1 L5A       0.021700
     33 H14          2.0920     1.9210     2.1700 hc         1 L5A       0.021700
     34 H15          4.2540     1.3390     1.3960 hc         1 L5A       0.038200
     35 H16          4.1190     2.3410    -0.0310 hc         1 L5A       0.038200
     36 H17         -5.4670     0.1140    -1.2020 hc         1 L5A       0.023700
     37 H18         -5.2810    -1.5090    -0.5890 hc         1 L5A       0.023700
     38 C17         -4.9370    -0.4770    -0.4530 c3         1 L5A      -0.182100
@<TRIPOS>BOND
     1     1     2 1   
     2     1     3 1   
     3     1    10 1   
     4     1    20 1   
     5     2    11 1   
     6     2    14 1   
     7     2    21 1   
     8     3    13 1   
     9     3    22 1   
    10     3    23 1   
    11     4     5 ar  
    12     4     9 ar  
    13     4    24 1   
    14     5     6 ar  
    15     5    38 1   
    16     6     7 ar  
    17     6    25 1   
    18     7     8 ar  
    19     7    26 1   
    20     8     9 ar  
    21     8    10 1   
    22     9    27 1   
    23    10    28 1   
    24    10    29 1   
    25    11    12 1   
    26    11    30 1   
    27    11    31 1   
    28    12    16 1   
    29    12    17 1   
    30    13    14 1   
    31    13    32 1   
    32    13    33 1   
    33    14    34 1   
    34    14    35 1   
    35    15    18 1   
    36    15    19 1   
    37    15    38 1   
    38    36    38 1   
    39    37    38 1   
@<TRIPOS>SUBSTRUCTURE
     1 L5A         1 TEMP              0 ****  ****    0 ROOT
