@<TRIPOS>MOLECULE
L5B
   67    71     1     0     0
SMALL
No Charge or Current Charge


@<TRIPOS>ATOM
      1 C4           2.4630    -2.6680    -0.3650 ca         1 L5B      -0.117000
      2 C5           4.2430    -1.6310     0.9320 ca         1 L5B      -0.092300
      3 C6           3.0300    -1.5170     0.2150 ca         1 L5B      -0.104800
      4 C7           2.3560    -0.1890     0.0620 ce         1 L5B       0.054600
      5 C8           4.8560    -0.4080     1.6110 c3         1 L5B      -0.024100
      6 C9           3.0300     0.9390    -0.3190 cf         1 L5B      -0.093400
      7 C10          5.4070     0.6450     0.6200 c3         1 L5B      -0.063400
      8 C11          4.5240     0.8880    -0.6260 c3         1 L5B      -0.023200
      9 C14          0.8920    -0.2120     0.3620 ca         1 L5B      -0.078800
     10 C15          2.4490     2.2920    -0.4090 ca         1 L5B      -0.005800
     11 C1           3.0940    -3.9160    -0.2420 ca         1 L5B      -0.093000
     12 C2           4.3090    -4.0450     0.4680 ca         1 L5B      -0.116600
     13 C3           4.8700    -2.8850     1.0530 ca         1 L5B      -0.089000
     14 O13          4.4750    -6.3730     0.0810 o          1 L5B      -0.717000
     15 C16          2.3120     2.9710    -1.6430 ca         1 L5B       0.123000
     16 C17          1.7390     4.2530    -1.6850 ca         1 L5B      -0.105000
     17 C18          1.2960     4.8640    -0.5020 ca         1 L5B       0.115000
     18 C19          1.4160     4.1940     0.7250 ca         1 L5B      -0.105000
     19 C20          1.9880     2.9110     0.7700 ca         1 L5B      -0.084000
     20 Cl1          0.5760     6.4670    -0.5590 cl         1 L5B      -0.216000
     21 Cl2          2.7970     2.2170    -3.1630 cl         1 L5B      -0.196000
     22 C23         -0.0340     0.3650    -0.5260 ca         1 L5B      -0.056500
     23 C24         -1.4100     0.3500    -0.2390 ca         1 L5B      -0.178500
     24 C25         -1.8850    -0.2550     0.9540 ca         1 L5B       0.134100
     25 C26         -0.9530    -0.8320     1.8310 ca         1 L5B      -0.178500
     26 C27          0.4220    -0.8160     1.5430 ca         1 L5B      -0.056500
     27 O28         -3.2190    -0.3270     1.3490 os         1 L5B      -0.353100
     28 C29         -4.1700     0.2040     0.3790 c5         1 L5B       0.170300
     29 C30         -5.5730     0.2170     1.0720 c5         1 L5B       0.156800
     30 N31         -6.4670    -0.4340     0.0800 n3         1 L5B      -0.721600
     31 C32         -5.6500    -1.5690    -0.4000 c5         1 L5B       0.157800
     32 C33         -4.3490    -0.8280    -0.7870 c5         1 L5B      -0.107400
     33 C34         -7.8200    -0.7570     0.5810 c3         1 L5B       0.174800
     34 C35         -8.7660    -1.3190    -0.4980 c3         1 L5B      -0.114400
     35 C36        -10.1950    -1.5380     0.0300 c3         1 L5B       0.183600
     36 F37        -10.9810    -2.0320    -0.9580 f          1 L5B      -0.275000
     37 O38          6.0440    -5.4630     1.2290 o          1 L5B      -0.717000
     38 H1           1.5320    -2.5940    -0.9230 ha         1 L5B       0.094000
     39 H2           4.0970     0.0700     2.2430 hc         1 L5B       0.036200
     40 H3           5.6610    -0.7010     2.2950 hc         1 L5B       0.036200
     41 H4           5.5400     1.5920     1.1570 hc         1 L5B       0.032700
     42 H5           6.4040     0.3350     0.2830 hc         1 L5B       0.032700
     43 H6           4.7180     0.0930    -1.3560 hc         1 L5B       0.051200
     44 H7           4.8660     1.8130    -1.1050 hc         1 L5B       0.051200
     45 H8           2.6330    -4.7870    -0.7040 ha         1 L5B       0.131000
     46 H9           5.8010    -2.9560     1.6110 ha         1 L5B       0.130000
     47 H11          1.6310     4.7690    -2.6340 ha         1 L5B       0.136000
     48 H12          1.0660     4.6670     1.6390 ha         1 L5B       0.127000
     49 H13          2.0770     2.3930     1.7220 ha         1 L5B       0.131000
     50 H14          0.3120     0.8200    -1.4510 ha         1 L5B       0.124500
     51 H15         -2.0730     0.8110    -0.9640 ha         1 L5B       0.117000
     52 H16         -1.3010    -1.2990     2.7490 ha         1 L5B       0.117000
     53 H17          1.1240    -1.2660     2.2410 ha         1 L5B       0.124500
     54 H18         -3.8860     1.2120     0.0500 h1         1 L5B       0.057700
     55 H19         -5.5510    -0.3480     2.0150 h1         1 L5B       0.050700
     56 H20         -5.8980     1.2400     1.3040 h1         1 L5B       0.050700
     57 H22         -5.4750    -2.3100     0.3940 h1         1 L5B       0.040200
     58 H23         -6.0950    -2.0830    -1.2620 h1         1 L5B       0.040200
     59 H24         -4.4720    -0.3090    -1.7430 hc         1 L5B       0.063700
     60 H25         -3.5060    -1.5180    -0.9000 hc         1 L5B       0.063700
     61 H26         -7.7510    -1.4820     1.4040 h1         1 L5B       0.029200
     62 H27         -8.2760     0.1550     0.9900 h1         1 L5B       0.029200
     63 H28         -8.7990    -0.6250    -1.3460 hc         1 L5B       0.062700
     64 H29         -8.3790    -2.2740    -0.8720 hc         1 L5B       0.062700
     65 H30        -10.1870    -2.2520     0.8630 h1         1 L5B       0.039700
     66 H31        -10.6220    -0.5890     0.3770 h1         1 L5B       0.039700
     67 C12          4.9950    -5.3970     0.6030 c          1 L5B       0.710600
@<TRIPOS>BOND
     1     1     3 ar  
     2     1    11 ar  
     3     1    38 1   
     4     2     3 ar  
     5     2     5 1   
     6     2    13 ar  
     7     3     4 1   
     8     4     6 2   
     9     4     9 1   
    10     5     7 1   
    11     5    39 1   
    12     5    40 1   
    13     6     8 1   
    14     6    10 1   
    15     7     8 1   
    16     7    41 1   
    17     7    42 1   
    18     8    43 1   
    19     8    44 1   
    20     9    22 ar  
    21     9    26 ar  
    22    10    15 ar  
    23    10    19 ar  
    24    11    12 ar  
    25    11    45 1   
    26    12    13 ar  
    27    12    67 1   
    28    13    46 1   
    29    14    67 1   
    30    15    16 ar  
    31    15    21 1   
    32    16    17 ar  
    33    16    47 1   
    34    17    18 ar  
    35    17    20 1   
    36    18    19 ar  
    37    18    48 1   
    38    19    49 1   
    39    22    23 ar  
    40    22    50 1   
    41    23    24 ar  
    42    23    51 1   
    43    24    25 ar  
    44    24    27 1   
    45    25    26 ar  
    46    25    52 1   
    47    26    53 1   
    48    27    28 1   
    49    28    29 1   
    50    28    32 1   
    51    28    54 1   
    52    29    30 1   
    53    29    55 1   
    54    29    56 1   
    55    30    31 1   
    56    30    33 1   
    57    31    32 1   
    58    31    57 1   
    59    31    58 1   
    60    32    59 1   
    61    32    60 1   
    62    33    34 1   
    63    33    61 1   
    64    33    62 1   
    65    34    35 1   
    66    34    63 1   
    67    34    64 1   
    68    35    36 1   
    69    35    65 1   
    70    35    66 1   
    71    37    67 1   
@<TRIPOS>SUBSTRUCTURE
     1 L5B         1 TEMP              0 ****  ****    0 ROOT
