@<TRIPOS>MOLECULE
L5B
   67    71     1     0     0
SMALL
bcc


@<TRIPOS>ATOM
      1 C4           2.7500    -2.7570    -0.2800 ca         1 L5B      -0.135000
      2 C5           4.3610    -1.5000     1.0020 ca         1 L5B      -0.092300
      3 C6           3.1780    -1.5380     0.2470 ca         1 L5B      -0.104800
      4 C7           2.3810    -0.3100     0.0270 ce         1 L5B       0.054600
      5 C8           4.8110    -0.2130     1.6350 c3         1 L5B      -0.024100
      6 C9           2.9870     0.8290    -0.3560 cf         1 L5B      -0.093400
      7 C10          5.3220     0.8180     0.6240 c3         1 L5B      -0.063400
      8 C11          4.4670     0.8620    -0.6480 c3         1 L5B      -0.023200
      9 C14          0.9250    -0.4050     0.2620 ca         1 L5B      -0.078800
     10 C15          2.2600     2.1160    -0.4090 ca         1 L5B      -0.005800
     11 C1           3.4910    -3.9130    -0.1000 ca         1 L5B      -0.111000
     12 C2           4.6760    -3.8860     0.6310 ca         1 L5B      -0.116600
     13 C3           5.0860    -2.6730     1.1760 ca         1 L5B      -0.107000
     14 O13          5.0460    -6.1990     0.3370 o          1 L5B      -0.822300
     15 C16          2.0530     2.8150    -1.5950 ca         1 L5B       0.031400
     16 C17          1.4050     4.0400    -1.6340 ca         1 L5B      -0.123000
     17 C18          0.9550     4.5850    -0.4430 ca         1 L5B       0.023400
     18 C19          1.1370     3.9250     0.7620 ca         1 L5B      -0.123000
     19 C20          1.7860     2.7020     0.7630 ca         1 L5B      -0.102000
     20 CL1          0.1470     6.1150    -0.4700 cl         1 L5B      -0.124400
     21 CL2          2.5570     2.1100    -3.0950 cl         1 L5B      -0.104400
     22 C23         -0.0050     0.0650    -0.6590 ca         1 L5B      -0.074500
     23 C24         -1.3710    -0.0000    -0.4190 ca         1 L5B      -0.196500
     24 C25         -1.8380    -0.5440     0.7750 ca         1 L5B       0.134100
     25 C26         -0.9170    -1.0460     1.6990 ca         1 L5B      -0.196500
     26 C27          0.4370    -0.9820     1.4380 ca         1 L5B      -0.074500
     27 O28         -3.1350    -0.6350     1.1260 os         1 L5B      -0.329900
     28 C29         -4.1290    -0.0890     0.2730 c5         1 L5B       0.147100
     29 C30         -5.4420    -0.0620     1.0560 c5         1 L5B       0.156800
     30 N31         -6.4500    -0.3670     0.0610 n3         1 L5B      -0.721600
     31 C32         -5.8690    -1.4420    -0.7240 c5         1 L5B       0.157800
     32 C33         -4.4430    -0.9540    -0.9650 c5         1 L5B      -0.107400
     33 C34         -7.7440    -0.6490     0.6370 c3         1 L5B       0.174800
     34 C35         -8.8480    -0.7220    -0.4090 c3         1 L5B      -0.114400
     35 C36        -10.1940    -0.9110     0.2480 c3         1 L5B       0.164900
     36 F37        -11.1950    -0.9860    -0.7230 f          1 L5B      -0.256300
     37 O38          6.5510    -5.0320     1.4940 o          1 L5B      -0.822300
     38 H1           1.8270    -2.7940    -0.8470 ha         1 L5B       0.112000
     39 H2           3.9690     0.2230     2.1820 hc         1 L5B       0.036200
     40 H3           5.5870    -0.4120     2.3760 hc         1 L5B       0.036200
     41 H4           5.3440     1.7990     1.1040 hc         1 L5B       0.032700
     42 H5           6.3490     0.5870     0.3340 hc         1 L5B       0.032700
     43 H6           4.7250     0.0060    -1.2770 hc         1 L5B       0.051200
     44 H7           4.7260     1.7530    -1.2200 hc         1 L5B       0.051200
     45 H8           3.1460    -4.8450    -0.5270 ha         1 L5B       0.149000
     46 H9           5.9960    -2.6480     1.7640 ha         1 L5B       0.148000
     47 H11          1.2510     4.5520    -2.5740 ha         1 L5B       0.154000
     48 H12          0.7820     4.3560     1.6880 ha         1 L5B       0.145000
     49 H13          1.9300     2.1820     1.7010 ha         1 L5B       0.149000
     50 H14          0.3330     0.4750    -1.6020 ha         1 L5B       0.142500
     51 H15         -2.0460     0.3700    -1.1790 ha         1 L5B       0.135000
     52 H16         -1.2740    -1.4800     2.6240 ha         1 L5B       0.135000
     53 H17          1.1310    -1.3770     2.1700 ha         1 L5B       0.142500
     54 H18         -3.8360     0.9230    -0.0210 h1         1 L5B       0.057700
     55 H19         -5.4010    -0.8250     1.8520 h1         1 L5B       0.050700
     56 H20         -5.6360     0.9020     1.5300 h1         1 L5B       0.050700
     57 H22         -5.8630    -2.3940    -0.1660 h1         1 L5B       0.040200
     58 H23         -6.4180    -1.6110    -1.6510 h1         1 L5B       0.040200
     59 H24         -4.3960    -0.3470    -1.8700 hc         1 L5B       0.063700
     60 H25         -3.7370    -1.7760    -1.0850 hc         1 L5B       0.063700
     61 H26         -7.7250    -1.5830     1.2270 h1         1 L5B       0.029200
     62 H27         -7.9760     0.1530     1.3430 h1         1 L5B       0.029200
     63 H28         -8.8470     0.2010    -0.9940 hc         1 L5B       0.062700
     64 H29         -8.6690    -1.5500    -1.1000 hc         1 L5B       0.062700
     65 H30        -10.2260    -1.8340     0.8310 h1         1 L5B       0.039700
     66 H31        -10.4320    -0.0750     0.9100 h1         1 L5B       0.039700
     67 C12          5.4970    -5.1520     0.8390 c          1 L5B       0.921200
@<TRIPOS>BOND
     1     1     3 ar  
     2     1    11 ar  
     3     1    38 1   
     4     2     3 ar  
     5     2     5 1   
     6     2    13 ar  
     7     3     4 1   
     8     4     6 2   
     9     4     9 1   
    10     5     7 1   
    11     5    39 1   
    12     5    40 1   
    13     6     8 1   
    14     6    10 1   
    15     7     8 1   
    16     7    41 1   
    17     7    42 1   
    18     8    43 1   
    19     8    44 1   
    20     9    22 ar  
    21     9    26 ar  
    22    10    15 ar  
    23    10    19 ar  
    24    11    12 ar  
    25    11    45 1   
    26    12    13 ar  
    27    12    67 1   
    28    13    46 1   
    29    14    67 1   
    30    15    16 ar  
    31    15    21 1   
    32    16    17 ar  
    33    16    47 1   
    34    17    18 ar  
    35    17    20 1   
    36    18    19 ar  
    37    18    48 1   
    38    19    49 1   
    39    22    23 ar  
    40    22    50 1   
    41    23    24 ar  
    42    23    51 1   
    43    24    25 ar  
    44    24    27 1   
    45    25    26 ar  
    46    25    52 1   
    47    26    53 1   
    48    27    28 1   
    49    28    29 1   
    50    28    32 1   
    51    28    54 1   
    52    29    30 1   
    53    29    55 1   
    54    29    56 1   
    55    30    31 1   
    56    30    33 1   
    57    31    32 1   
    58    31    57 1   
    59    31    58 1   
    60    32    59 1   
    61    32    60 1   
    62    33    34 1   
    63    33    61 1   
    64    33    62 1   
    65    34    35 1   
    66    34    63 1   
    67    34    64 1   
    68    35    36 1   
    69    35    65 1   
    70    35    66 1   
    71    37    67 1   
@<TRIPOS>SUBSTRUCTURE
     1 L5B         1 TEMP              0 ****  ****    0 ROOT
