@<TRIPOS>MOLECULE
L5C
   62    65     1     0     0
SMALL
abcg2


@<TRIPOS>ATOM
      1 C11         -3.8920    -0.7460    -1.1850 ca         1 L5C      -0.147500
      2 C13         -5.8060     0.0450     0.0470 ca         1 L5C      -0.054000
      3 C14         -5.0690    -0.1000     1.2170 ca         1 L5C      -0.108500
      4 C15         -3.7600    -0.5590     1.2000 ca         1 L5C      -0.147500
      5 C17         -8.1360     0.4290    -0.7220 c          1 L5C       0.662700
      6 C19         -9.4000     1.0310    -0.2840 cc         1 L5C      -0.293600
      7 C20         -9.7450     1.7680     0.8670 cc         1 L5C       0.268900
      8 C02          2.5350    -1.9800     0.1400 ca         1 L5C      -0.025000
      9 C03          1.3180    -1.4210     0.5390 ca         1 L5C      -0.145000
     10 C04          0.1680    -2.1890     0.6210 ca         1 L5C      -0.066300
     11 C05          0.2230    -3.5410     0.2930 ca         1 L5C      -0.108000
     12 C06          1.4260    -4.0970    -0.1060 ca         1 L5C      -0.089000
     13 C07          2.5840    -3.3340    -0.1870 ca         1 L5C      -0.119000
     14 C08         -1.1310    -1.5670     1.0370 c3         1 L5C       0.210900
     15 C10         -3.1600    -0.8970    -0.0090 ca         1 L5C       0.117100
     16 C12         -5.1940    -0.2780    -1.1670 ca         1 L5C      -0.108500
     17 N16         -7.1120     0.5430     0.1620 ns         1 L5C      -0.140000
     18 O18         -8.0380    -0.1260    -1.8070 o          1 L5C      -0.599100
     19 N21        -11.0110     2.1230     0.8440 nd         1 L5C      -0.523800
     20 N22        -11.4980     1.6330    -0.2970 na         1 L5C       0.135800
     21 C23        -10.5790     0.9760    -1.0060 cd         1 L5C      -0.092000
     22 C24        -12.8840     1.8500    -0.6390 c3         1 L5C       0.069900
     23 C25          4.9260    -1.3860    -0.1980 c          1 L5C       0.620100
     24 O26          5.3530    -2.4790    -0.5180 o          1 L5C      -0.563100
     25 C27          5.8300    -0.1750    -0.0920 c3         1 L5C      -0.081400
     26 S28          7.4950    -0.7020    -0.5510 ss         1 L5C      -0.208300
     27 C29          8.3990     0.7880    -0.3320 ca         1 L5C       0.221300
     28 N30          9.6920     0.6420    -0.5850 nb         1 L5C      -0.195500
     29 C31         10.4530     1.7230    -0.4420 ca         1 L5C       0.144300
     30 C32          9.8990     2.9360    -0.0460 ca         1 L5C      -0.231000
     31 C33          8.5340     2.9790     0.1950 ca         1 L5C       0.144300
     32 N34          7.7790     1.8880     0.0480 nb         1 L5C      -0.195500
     33 C35          7.8460     4.2300     0.6310 c3         1 L5C      -0.151400
     34 C36         11.9110     1.5750    -0.7260 c3         1 L5C      -0.151400
     35 H111        -3.4320    -0.9950    -2.1340 ha         1 L5C       0.122500
     36 H141        -5.5180     0.1490     2.1720 ha         1 L5C       0.127000
     37 H151        -3.2350    -0.6480     2.1420 ha         1 L5C       0.122500
     38 H201        -9.1250     2.0590     1.7030 h4         1 L5C       0.036100
     39 H011         3.4270    -0.1570     0.3430 hn         1 L5C       0.153000
     40 H031         1.2710    -0.3680     0.7930 ha         1 L5C       0.109000
     41 H051        -0.6660    -4.1560     0.3570 ha         1 L5C       0.121000
     42 H061         1.4760    -5.1480    -0.3580 ha         1 L5C       0.119000
     43 H071         3.5030    -3.8010    -0.4990 ha         1 L5C       0.150000
     44 H081        -1.6600    -2.2310     1.7290 h1         1 L5C       0.040200
     45 H082        -0.9570    -0.6160     1.5530 h1         1 L5C       0.040200
     46 H121        -5.7180    -0.1640    -2.1020 ha         1 L5C       0.127000
     47 H161        -7.3280     0.9450     1.0600 hn         1 L5C       0.149000
     48 H231       -10.8060     0.5200    -1.9560 h4         1 L5C       0.173000
     49 H241       -13.0890     2.9150    -0.7160 h1         1 L5C       0.061033
     50 H243       -13.0900     1.3780    -1.5950 h1         1 L5C       0.061033
     51 H242       -13.5300     1.4140     0.1200 h1         1 L5C       0.061033
     52 H271         5.4820     0.6230    -0.7510 h1         1 L5C       0.094200
     53 H272         5.8210     0.2170     0.9260 h1         1 L5C       0.094200
     54 H321        10.5150     3.8160     0.0720 ha         1 L5C       0.133000
     55 H353         7.0210     4.4670    -0.0420 hc         1 L5C       0.057033
     56 H352         7.4200     4.0990     1.6270 hc         1 L5C       0.057033
     57 H351         8.5290     5.0760     0.6570 hc         1 L5C       0.057033
     58 H363        12.0670     1.3240    -1.7760 hc         1 L5C       0.057033
     59 H362        12.4600     2.4880    -0.5060 hc         1 L5C       0.057033
     60 H361        12.3330     0.7630    -0.1340 hc         1 L5C       0.057033
     61 O09         -1.8990    -1.3640    -0.1400 os         1 L5C      -0.340100
     62 N01          3.6340    -1.1140     0.1000 ns         1 L5C      -0.143000
@<TRIPOS>BOND
     1     1    15 ar  
     2     1    16 ar  
     3     1    35 1   
     4     2     3 ar  
     5     2    16 ar  
     6     2    17 1   
     7     3     4 ar  
     8     3    36 1   
     9     4    15 ar  
    10     4    37 1   
    11     5     6 1   
    12     5    17 1   
    13     5    18 2   
    14     6     7 1   
    15     6    21 2   
    16     7    19 2   
    17     7    38 1   
    18     8     9 ar  
    19     8    13 ar  
    20     8    62 1   
    21     9    10 ar  
    22     9    40 1   
    23    10    11 ar  
    24    10    14 1   
    25    11    12 ar  
    26    11    41 1   
    27    12    13 ar  
    28    12    42 1   
    29    13    43 1   
    30    14    44 1   
    31    14    45 1   
    32    14    61 1   
    33    15    61 1   
    34    16    46 1   
    35    17    47 1   
    36    19    20 1   
    37    20    21 1   
    38    20    22 1   
    39    21    48 1   
    40    22    49 1   
    41    22    50 1   
    42    22    51 1   
    43    23    24 2   
    44    23    25 1   
    45    23    62 1   
    46    25    26 1   
    47    25    52 1   
    48    25    53 1   
    49    26    27 1   
    50    27    28 ar  
    51    27    32 ar  
    52    28    29 ar  
    53    29    30 ar  
    54    29    34 1   
    55    30    31 ar  
    56    30    54 1   
    57    31    32 ar  
    58    31    33 1   
    59    33    55 1   
    60    33    56 1   
    61    33    57 1   
    62    34    58 1   
    63    34    59 1   
    64    34    60 1   
    65    39    62 1   
@<TRIPOS>SUBSTRUCTURE
     1 L5C         1 TEMP              0 ****  ****    0 ROOT
