@<TRIPOS>MOLECULE
L5C
   62    65     1     0     0
SMALL
No Charge or Current Charge


@<TRIPOS>ATOM
      1 C11         -3.7120    -0.9960    -1.1990 ca         1 L5C      -0.147500
      2 C13         -5.6930    -0.1440    -0.0480 ca         1 L5C      -0.054000
      3 C14         -5.0840    -0.4560     1.1820 ca         1 L5C      -0.108500
      4 C15         -3.8020    -1.0320     1.2280 ca         1 L5C      -0.147500
      5 C17         -7.8640     0.8580    -1.0090 c          1 L5C       0.662700
      6 C19         -9.1310     1.4100    -0.4880 cc         1 L5C      -0.293600
      7 C20         -9.5080     1.5390     0.8560 cc         1 L5C       0.268900
      8 C02          2.5920    -2.5220     0.3550 ca         1 L5C      -0.025000
      9 C03          1.3360    -1.9880     0.7060 ca         1 L5C      -0.145000
     10 C04          0.2030    -2.8160     0.8300 ca         1 L5C      -0.066300
     11 C05          0.3300    -4.1970     0.5960 ca         1 L5C      -0.108000
     12 C06          1.5750    -4.7420     0.2460 ca         1 L5C      -0.089000
     13 C07          2.7030    -3.9110     0.1250 ca         1 L5C      -0.119000
     14 C08         -1.1470    -2.2220     1.2110 c3         1 L5C       0.210900
     15 C10         -3.1090    -1.3050     0.0290 ca         1 L5C       0.117100
     16 C12         -4.9940    -0.4200    -1.2450 ca         1 L5C      -0.108500
     17 N16         -6.9930     0.4370    -0.0100 ns         1 L5C      -0.140000
     18 O18         -7.6300     0.7890    -2.2100 o          1 L5C      -0.599100
     19 N21        -10.7030     2.0700     1.0210 nd         1 L5C      -0.523800
     20 N22        -11.1170     2.2950    -0.2870 na         1 L5C       0.135800
     21 C23        -10.1660     1.8970    -1.2330 cd         1 L5C      -0.092000
     22 C24        -12.4300     2.8920    -0.5680 c3         1 L5C       0.069900
     23 C25          5.0260    -1.7920    -0.0590 c          1 L5C       0.620100
     24 O26          5.5350    -2.8780    -0.3180 o          1 L5C      -0.563100
     25 C27          5.8290    -0.4820    -0.0470 c3         1 L5C      -0.081400
     26 S28          7.6340    -0.6930    -0.4570 ss         1 L5C      -0.208300
     27 C29          8.3100     0.9640    -0.3700 ca         1 L5C       0.221300
     28 N30          9.6290     1.0850    -0.6330 nb         1 L5C      -0.195500
     29 C31         10.1580     2.3240    -0.5700 ca         1 L5C       0.144300
     30 C32          9.3650     3.4380    -0.2500 ca         1 L5C      -0.231000
     31 C33          8.0020     3.2150     0.0060 ca         1 L5C       0.144300
     32 N34          7.4740     1.9770    -0.0520 nb         1 L5C      -0.195500
     33 C35          7.0620     4.3500     0.3660 c3         1 L5C      -0.151400
     34 C36         11.6390     2.4590    -0.8690 c3         1 L5C      -0.151400
     35 H111        -3.1810    -1.2050    -2.1250 ha         1 L5C       0.122500
     36 H141        -5.6070    -0.2500     2.1150 ha         1 L5C       0.127000
     37 H151        -3.3670    -1.2570     2.1970 ha         1 L5C       0.122500
     38 H201        -8.9420     1.2590     1.7340 h4         1 L5C       0.036100
     39 H011         3.4290    -0.6530     0.4410 hn         1 L5C       0.153000
     40 H031         1.2370    -0.9190     0.8830 ha         1 L5C       0.109000
     41 H051        -0.5380    -4.8480     0.6850 ha         1 L5C       0.121000
     42 H061         1.6670    -5.8110     0.0660 ha         1 L5C       0.119000
     43 H071         3.6480    -4.3690    -0.1480 ha         1 L5C       0.150000
     44 H081        -1.7190    -2.9590     1.7910 h1         1 L5C       0.040200
     45 H082        -0.9920    -1.3370     1.8420 h1         1 L5C       0.040200
     46 H121        -5.4220    -0.1980    -2.2170 ha         1 L5C       0.127000
     47 H161        -7.3490     0.5690     0.9260 hn         1 L5C       0.149000
     48 H231       -10.3050     1.9910    -2.3050 h4         1 L5C       0.173000
     49 H241       -12.4830     3.8880    -0.1150 h1         1 L5C       0.061033
     50 H243       -12.5740     2.9780    -1.6510 h1         1 L5C       0.061033
     51 H242       -13.2180     2.2570    -0.1470 h1         1 L5C       0.061033
     52 H271         5.3700     0.2000    -0.7720 h1         1 L5C       0.094200
     53 H272         5.7340    -0.0400     0.9530 h1         1 L5C       0.094200
     54 H321         9.7910     4.4370    -0.2010 ha         1 L5C       0.133000
     55 H353         6.0780     4.2160    -0.0980 hc         1 L5C       0.057033
     56 H352         6.9170     4.4060     1.4520 hc         1 L5C       0.057033
     57 H351         7.4570     5.3170     0.0310 hc         1 L5C       0.057033
     58 H363        11.8170     2.4930    -1.9500 hc         1 L5C       0.057033
     59 H362        12.0520     3.3760    -0.4320 hc         1 L5C       0.057033
     60 H361        12.2080     1.6140    -0.4610 hc         1 L5C       0.057033
     61 O09         -1.8500    -1.8690     0.0070 os         1 L5C      -0.340100
     62 N01          3.6830    -1.6140     0.2520 ns         1 L5C      -0.143000
@<TRIPOS>BOND
     1     1    15 ar  
     2     1    16 ar  
     3     1    35 1   
     4     2     3 ar  
     5     2    16 ar  
     6     2    17 1   
     7     3     4 ar  
     8     3    36 1   
     9     4    15 ar  
    10     4    37 1   
    11     5     6 1   
    12     5    17 1   
    13     5    18 2   
    14     6     7 1   
    15     6    21 2   
    16     7    19 2   
    17     7    38 1   
    18     8     9 ar  
    19     8    13 ar  
    20     8    62 1   
    21     9    10 ar  
    22     9    40 1   
    23    10    11 ar  
    24    10    14 1   
    25    11    12 ar  
    26    11    41 1   
    27    12    13 ar  
    28    12    42 1   
    29    13    43 1   
    30    14    44 1   
    31    14    45 1   
    32    14    61 1   
    33    15    61 1   
    34    16    46 1   
    35    17    47 1   
    36    19    20 1   
    37    20    21 1   
    38    20    22 1   
    39    21    48 1   
    40    22    49 1   
    41    22    50 1   
    42    22    51 1   
    43    23    24 2   
    44    23    25 1   
    45    23    62 1   
    46    25    26 1   
    47    25    52 1   
    48    25    53 1   
    49    26    27 1   
    50    27    28 ar  
    51    27    32 ar  
    52    28    29 ar  
    53    29    30 ar  
    54    29    34 1   
    55    30    31 ar  
    56    30    54 1   
    57    31    32 ar  
    58    31    33 1   
    59    33    55 1   
    60    33    56 1   
    61    33    57 1   
    62    34    58 1   
    63    34    59 1   
    64    34    60 1   
    65    39    62 1   
@<TRIPOS>SUBSTRUCTURE
     1 L5C         1 TEMP              0 ****  ****    0 ROOT
