@<TRIPOS>MOLECULE
L5D
   27    28     1     0     0
SMALL
bcc


@<TRIPOS>ATOM
      1 C            3.5340    -0.6330    -0.7500 c          1 L5D       0.924200
      2 O            4.6610    -0.1020    -0.7260 o          1 L5D      -0.825300
      3 C1           2.3670     0.2200    -0.2650 ca         1 L5D      -0.139600
      4 C10         -2.4780     0.6650    -0.1680 ca         1 L5D      -0.131000
      5 C11          0.2150     1.7720     0.6060 ca         1 L5D      -0.140000
      6 C12          1.4980     2.2980     0.5990 ca         1 L5D      -0.170000
      7 C13          2.5690     1.5290     0.1670 ca         1 L5D      -0.094000
      8 C2           1.0750    -0.2950    -0.2510 ca         1 L5D      -0.086000
      9 C3          -0.0130     0.4630     0.1800 cp         1 L5D      -0.091000
     10 C4          -1.3760    -0.1100     0.1910 cp         1 L5D       0.008000
     11 C5          -1.5890    -1.4390     0.5640 ca         1 L5D      -0.121000
     12 C6          -2.8710    -1.9640     0.5770 ca         1 L5D      -0.134000
     13 C7          -3.9580    -1.1750     0.2180 ca         1 L5D      -0.148000
     14 C8          -3.7730     0.1510    -0.1600 ca         1 L5D      -0.089300
     15 C9          -4.9340     1.0190    -0.5490 c3         1 L5D      -0.038800
     16 O1           3.2610    -1.7890    -1.1270 o          1 L5D      -0.825300
     17 H8          -0.6090     2.3770     0.9660 ha         1 L5D       0.103000
     18 H9           1.6640     3.3120     0.9420 ha         1 L5D       0.104000
     19 H10          3.5680     1.9430     0.1670 ha         1 L5D       0.145000
     20 H            0.9170    -1.3070    -0.6030 ha         1 L5D       0.148000
     21 H1          -0.7540    -2.0590     0.8660 ha         1 L5D       0.144000
     22 H2          -3.0290    -2.9930     0.8740 ha         1 L5D       0.119000
     23 H3          -4.9570    -1.5950     0.2340 ha         1 L5D       0.113000
     24 H6          -5.0670     1.8390     0.1590 hc         1 L5D       0.032033
     25 H4          -4.7860     1.4670    -1.5320 hc         1 L5D       0.032033
     26 H5          -5.8640     0.4530    -0.5770 hc         1 L5D       0.032033
     27 H7          -2.3250     1.6920    -0.4810 ha         1 L5D       0.128000
@<TRIPOS>BOND
     1     1     2 1   
     2     1     3 1   
     3     1    16 1   
     4     3     7 ar  
     5     3     8 ar  
     6     4    10 ar  
     7     4    14 ar  
     8     4    27 1   
     9     5     6 ar  
    10     5     9 ar  
    11     5    17 1   
    12     6     7 ar  
    13     6    18 1   
    14     7    19 1   
    15     8     9 ar  
    16     8    20 1   
    17     9    10 1   
    18    10    11 ar  
    19    11    12 ar  
    20    11    21 1   
    21    12    13 ar  
    22    12    22 1   
    23    13    14 ar  
    24    13    23 1   
    25    14    15 1   
    26    15    24 1   
    27    15    25 1   
    28    15    26 1   
@<TRIPOS>SUBSTRUCTURE
     1 L5D         1 TEMP              0 ****  ****    0 ROOT
