@<TRIPOS>MOLECULE
L5D
   27    28     1     0     0
SMALL
No Charge or Current Charge


@<TRIPOS>ATOM
      1 C            3.6020    -0.6570    -0.6950 c          1 L5D       0.713600
      2 O            4.7190    -0.1590    -0.7130 o          1 L5D      -0.720000
      3 C1           2.4280     0.2050    -0.2580 ca         1 L5D      -0.139600
      4 C10         -2.5100     0.6850    -0.1530 ca         1 L5D      -0.113000
      5 C11          0.2400     1.8070     0.5480 ca         1 L5D      -0.122000
      6 C12          1.5370     2.3420     0.5310 ca         1 L5D      -0.152000
      7 C13          2.6240     1.5490     0.1320 ca         1 L5D      -0.076000
      8 C2           1.1140    -0.3200    -0.2340 ca         1 L5D      -0.068000
      9 C3           0.0010     0.4650     0.1670 cp         1 L5D      -0.091000
     10 C4          -1.3840    -0.1090     0.1850 cp         1 L5D       0.008000
     11 C5          -1.6130    -1.4610     0.5430 ca         1 L5D      -0.103000
     12 C6          -2.9120    -1.9960     0.5620 ca         1 L5D      -0.116000
     13 C7          -4.0100    -1.1900     0.2230 ca         1 L5D      -0.130000
     14 C8          -3.8140     0.1540    -0.1390 ca         1 L5D      -0.089300
     15 C9          -5.0010     1.0320    -0.5080 c3         1 L5D      -0.038800
     16 O1           3.3910    -1.8190    -1.0130 o          1 L5D      -0.720000
     17 H8          -0.5840     2.4370     0.8730 ha         1 L5D       0.085000
     18 H9           1.7010     3.3750     0.8310 ha         1 L5D       0.086000
     19 H10          3.6210     1.9850     0.1260 ha         1 L5D       0.127000
     20 H            0.9470    -1.3480    -0.5450 ha         1 L5D       0.130000
     21 H1          -0.7780    -2.0980     0.8230 ha         1 L5D       0.126000
     22 H2          -3.0670    -3.0350     0.8440 ha         1 L5D       0.101000
     23 H3          -5.0120    -1.6110     0.2420 ha         1 L5D       0.095000
     24 H6          -5.3610     1.5880     0.3660 hc         1 L5D       0.032033
     25 H4          -4.7330     1.7600    -1.2820 hc         1 L5D       0.032033
     26 H5          -5.8370     0.4350    -0.8930 hc         1 L5D       0.032033
     27 H7          -2.3650     1.7230    -0.4420 ha         1 L5D       0.110000
@<TRIPOS>BOND
     1     1     2 1   
     2     1     3 1   
     3     1    16 1   
     4     3     7 ar  
     5     3     8 ar  
     6     4    10 ar  
     7     4    14 ar  
     8     4    27 1   
     9     5     6 ar  
    10     5     9 ar  
    11     5    17 1   
    12     6     7 ar  
    13     6    18 1   
    14     7    19 1   
    15     8     9 ar  
    16     8    20 1   
    17     9    10 1   
    18    10    11 ar  
    19    11    12 ar  
    20    11    21 1   
    21    12    13 ar  
    22    12    22 1   
    23    13    14 ar  
    24    13    23 1   
    25    14    15 1   
    26    15    24 1   
    27    15    25 1   
    28    15    26 1   
@<TRIPOS>SUBSTRUCTURE
     1 L5D         1 TEMP              0 ****  ****    0 ROOT
