@<TRIPOS>MOLECULE
L5E
   30    31     1     0     0
SMALL
bcc


@<TRIPOS>ATOM
      1 N1          -0.6750     4.2050     0.6610 nz         1 L5E      -0.830600
      2 C2           1.3310    -2.1730     0.4240 ca         1 L5E      -0.082000
      3 C4          -0.9180    -1.4600     0.0510 ca         1 L5E      -0.006900
      4 C5          -0.4900    -0.2360    -0.4580 ca         1 L5E      -0.065300
      5 C6           0.8920     0.0310    -0.5030 ca         1 L5E      -0.055300
      6 C8          -1.4460     0.8150    -0.9480 c3         1 L5E      -0.090100
      7 C9           0.9610     2.5150    -0.0250 c3         1 L5E      -0.095400
      8 C11         -0.4490     3.0350    -0.2380 c3         1 L5E       0.168500
      9 C1           1.7760    -0.9490    -0.0540 ca         1 L5E       0.000100
     10 C10         -1.5830     2.0290    -0.0090 c3         1 L5E       0.350600
     11 C3          -0.0230    -2.4290     0.4810 ca         1 L5E      -0.085000
     12 C7           1.3440     1.3820    -0.9840 c3         1 L5E      -0.029100
     13 O1          -2.7430     2.7450    -0.3150 oh         1 L5E      -0.638800
     14 O2          -1.5200     1.6710     1.3350 oh         1 L5E      -0.638800
     15 BR1          3.6500    -0.6790    -0.0500 br         1 L5E      -0.058100
     16 H10          0.0120     4.9390     0.4910 hn         1 L5E       0.461133
     17 H11         -1.5960     4.6210     0.5150 hn         1 L5E       0.461133
     18 H14         -0.6100     3.9510     1.6480 hn         1 L5E       0.461133
     19 H1           2.0270    -2.9290     0.7610 ha         1 L5E       0.171000
     20 H6          -1.1490     1.1660    -1.9390 hc         1 L5E       0.086200
     21 H5          -2.4390     0.3880    -1.0940 hc         1 L5E       0.086200
     22 H8           1.6470     3.3470    -0.2000 hc         1 L5E       0.073700
     23 H7           1.1090     2.2000     1.0100 hc         1 L5E       0.073700
     24 H9          -0.5400     3.4210    -1.2540 hx         1 L5E       0.112700
     25 H2          -0.3670    -3.3790     0.8670 ha         1 L5E       0.171000
     26 H3           2.4220     1.4060    -1.1130 hc         1 L5E       0.079200
     27 H4           0.9380     1.5820    -1.9800 hc         1 L5E       0.079200
     28 H12         -3.5190     2.1720    -0.2730 ho         1 L5E       0.457000
     29 H13         -2.1660     0.9850     1.5430 ho         1 L5E       0.457000
     30 BR2         -2.7570    -1.8830     0.2200 br         1 L5E      -0.076100
@<TRIPOS>BOND
     1     1     8 1   
     2     1    16 1   
     3     1    17 1   
     4     1    18 1   
     5     2     9 ar  
     6     2    11 ar  
     7     2    19 1   
     8     3     4 ar  
     9     3    11 ar  
    10     3    30 1   
    11     4     5 ar  
    12     4     6 1   
    13     5     9 ar  
    14     5    12 1   
    15     6    10 1   
    16     6    20 1   
    17     6    21 1   
    18     7     8 1   
    19     7    12 1   
    20     7    22 1   
    21     7    23 1   
    22     8    10 1   
    23     8    24 1   
    24     9    15 1   
    25    10    13 1   
    26    10    14 1   
    27    11    25 1   
    28    12    26 1   
    29    12    27 1   
    30    13    28 1   
    31    14    29 1   
@<TRIPOS>SUBSTRUCTURE
     1 L5E         1 TEMP              0 ****  ****    0 ROOT
