@<TRIPOS>MOLECULE
L5E
   30    31     1     0     0
SMALL
No Charge or Current Charge


@<TRIPOS>ATOM
      1 N1          -0.6300     4.3040     0.6600 nz         1 L5E      -0.968000
      2 C2           1.3270    -2.1960     0.4430 ca         1 L5E      -0.064000
      3 C4          -0.9650    -1.5020     0.0470 ca         1 L5E      -0.006900
      4 C5          -0.5180    -0.2480    -0.4510 ca         1 L5E      -0.065300
      5 C6           0.8780     0.0270    -0.4870 ca         1 L5E      -0.055300
      6 C8          -1.5230     0.8180    -0.9280 c3         1 L5E      -0.090100
      7 C9           0.9910     2.5500    -0.0390 c3         1 L5E      -0.095400
      8 C11         -0.4400     3.1040    -0.2360 c3         1 L5E       0.140300
      9 C1           1.7920    -0.9610    -0.0300 ca         1 L5E       0.000100
     10 C10         -1.6040     2.0680    -0.0130 c3         1 L5E       0.397000
     11 C3          -0.0440    -2.4650     0.4830 ca         1 L5E      -0.067000
     12 C7           1.3730     1.3920    -0.9900 c3         1 L5E      -0.029100
     13 O1          -2.8250     2.7420    -0.2480 oh         1 L5E      -0.701000
     14 O2          -1.6550     1.6890     1.3480 oh         1 L5E      -0.701000
     15 Br1          3.6980    -0.6930     0.0030 br         1 L5E      -0.058100
     16 H10          0.0450     5.0670     0.5120 hn         1 L5E       0.516333
     17 H11         -1.5720     4.7040     0.5370 hn         1 L5E       0.516333
     18 H14         -0.5900     4.0410     1.6550 hn         1 L5E       0.516333
     19 H1           2.0340    -2.9460     0.7920 ha         1 L5E       0.153000
     20 H6          -1.2660     1.1440    -1.9430 hc         1 L5E       0.086200
     21 H5          -2.5250     0.3970    -1.0520 hc         1 L5E       0.086200
     22 H8           1.6970     3.3710    -0.2080 hc         1 L5E       0.073700
     23 H7           1.1330     2.2300     1.0010 hc         1 L5E       0.073700
     24 H9          -0.5210     3.4450    -1.2730 hx         1 L5E       0.112700
     25 H2          -0.3950    -3.4220     0.8630 ha         1 L5E       0.153000
     26 H3           2.4580     1.4120    -1.1190 hc         1 L5E       0.079200
     27 H4           0.9890     1.5970    -1.9970 hc         1 L5E       0.079200
     28 H12         -3.5200     2.0530    -0.3120 ho         1 L5E       0.496000
     29 H13         -1.8770     0.7340     1.3580 ho         1 L5E       0.496000
     30 Br2         -2.8270    -1.9680     0.1940 br         1 L5E      -0.076100
@<TRIPOS>BOND
     1     1     8 1   
     2     1    16 1   
     3     1    17 1   
     4     1    18 1   
     5     2     9 ar  
     6     2    11 ar  
     7     2    19 1   
     8     3     4 ar  
     9     3    11 ar  
    10     3    30 1   
    11     4     5 ar  
    12     4     6 1   
    13     5     9 ar  
    14     5    12 1   
    15     6    10 1   
    16     6    20 1   
    17     6    21 1   
    18     7     8 1   
    19     7    12 1   
    20     7    22 1   
    21     7    23 1   
    22     8    10 1   
    23     8    24 1   
    24     9    15 1   
    25    10    13 1   
    26    10    14 1   
    27    11    25 1   
    28    12    26 1   
    29    12    27 1   
    30    13    28 1   
    31    14    29 1   
@<TRIPOS>SUBSTRUCTURE
     1 L5E         1 TEMP              0 ****  ****    0 ROOT
