@<TRIPOS>MOLECULE
L5G
   46    50     1     0     0
SMALL
No Charge or Current Charge


@<TRIPOS>ATOM
      1 N1          -2.4730     0.5960     0.0990 nc         1 L5G      -0.456800
      2 N3          -2.3750     3.9170    -1.0480 nd         1 L5G      -0.069000
      3 C4          -3.8470    -1.3180    -0.3160 ca         1 L5G      -0.168500
      4 C5          -2.8240    -2.2470    -0.0080 ca         1 L5G      -0.076500
      5 C6          -3.1350    -3.5880     0.2740 ca         1 L5G      -0.114500
      6 C7          -3.5300     0.1060    -0.5760 cd         1 L5G       0.392500
      7 C8          -4.3310     0.8640    -1.5220 cd         1 L5G      -0.143000
      8 C10         -2.9160     2.7130    -1.0450 cc         1 L5G      -0.145000
      9 C13          1.9190     0.8900     1.3270 ca         1 L5G       0.212100
     10 C15          3.1780     0.3730     3.3200 ca         1 L5G       0.394900
     11 C17          3.9570    -0.4340     1.2840 ca         1 L5G       0.323000
     12 C20          3.7330    -0.7100    -1.5190 ca         1 L5G      -0.198000
     13 C21          2.7680     0.0210    -0.8070 ca         1 L5G      -0.030000
     14 C22          5.7790    -2.2420    -2.9030 c3         1 L5G       0.149900
     15 C19          4.8110    -1.3050    -0.8350 ca         1 L5G       0.159100
     16 C18          4.9120    -1.1610     0.5560 ca         1 L5G      -0.155000
     17 C16          2.8760     0.1620     0.5930 ca         1 L5G      -0.140000
     18 N5           4.0980    -0.3250     2.6240 nb         1 L5G      -0.687000
     19 C14          2.0790     0.9930     2.7180 ca         1 L5G      -0.279000
     20 O1           0.8580     1.4770     0.6660 os         1 L5G      -0.343100
     21 C11         -1.2040     2.6740     0.3570 cc         1 L5G       0.328800
     22 N2          -2.2160     1.9280    -0.1880 na         1 L5G       0.138000
     23 N4          -1.2980     3.8960    -0.1660 nd         1 L5G      -0.346700
     24 C9          -4.0210     2.1820    -1.7550 cc         1 L5G      -0.026000
     25 C3          -5.1900    -1.7610    -0.2930 ca         1 L5G      -0.076500
     26 C2          -5.4970    -3.1030    -0.0080 ca         1 L5G      -0.114500
     27 C1          -4.4710    -4.0190     0.2710 ca         1 L5G      -0.088000
     28 H5          -1.7810    -1.9380     0.0010 ha         1 L5G       0.124000
     29 H6          -2.3380    -4.2940     0.4990 ha         1 L5G       0.122500
     30 H8          -5.1550     0.3990    -2.0490 ha         1 L5G       0.140000
     31 H15          3.3300     0.4360     4.3970 h4         1 L5G       0.017100
     32 H20          3.6250    -0.8030    -2.5960 ha         1 L5G       0.120000
     33 H21          1.9410     0.4730    -1.3500 ha         1 L5G       0.130000
     34 H22          4.8690    -2.7710    -3.2140 h1         1 L5G       0.042700
     35 H22A         5.8300    -1.2840    -3.4380 h1         1 L5G       0.042700
     36 H22B         6.6430    -2.8460    -3.2050 h1         1 L5G       0.042700
     37 H18          5.7440    -1.6210     1.0780 ha         1 L5G       0.146000
     38 H14          1.3820     1.5390     3.3450 ha         1 L5G       0.128000
     39 H12         -0.6840     1.5500     2.0910 h1         1 L5G       0.076700
     40 H12A         0.2270     3.0650     1.8880 h1         1 L5G       0.076700
     41 H9          -4.5840     2.7980    -2.4500 ha         1 L5G       0.154000
     42 H3          -6.0060    -1.0670    -0.4820 ha         1 L5G       0.124000
     43 H2          -6.5340    -3.4310     0.0020 ha         1 L5G       0.122500
     44 H1          -4.7110    -5.0570     0.4910 ha         1 L5G       0.118000
     45 C12         -0.1840     2.1960     1.3590 c3         1 L5G       0.171300
     46 O2           5.7890    -2.0340    -1.4800 os         1 L5G      -0.339100
@<TRIPOS>BOND
     1     1     6 2   
     2     1    22 1   
     3     2     8 2   
     4     2    23 1   
     5     3     4 ar  
     6     3     6 1   
     7     3    25 ar  
     8     4     5 ar  
     9     4    28 1   
    10     5    27 ar  
    11     5    29 1   
    12     6     7 1   
    13     7    24 2   
    14     7    30 1   
    15     8    22 1   
    16     8    24 1   
    17     9    17 ar  
    18     9    19 ar  
    19     9    20 1   
    20    10    18 ar  
    21    10    19 ar  
    22    10    31 1   
    23    11    16 ar  
    24    11    17 ar  
    25    11    18 ar  
    26    12    13 ar  
    27    12    15 ar  
    28    12    32 1   
    29    13    17 ar  
    30    13    33 1   
    31    14    34 1   
    32    14    35 1   
    33    14    36 1   
    34    14    46 1   
    35    15    16 ar  
    36    15    46 1   
    37    16    37 1   
    38    19    38 1   
    39    20    45 1   
    40    21    22 1   
    41    21    23 2   
    42    21    45 1   
    43    24    41 1   
    44    25    26 ar  
    45    25    42 1   
    46    26    27 ar  
    47    26    43 1   
    48    27    44 1   
    49    39    45 1   
    50    40    45 1   
@<TRIPOS>SUBSTRUCTURE
     1 L5G         1 TEMP              0 ****  ****    0 ROOT
