@<TRIPOS>MOLECULE
L5G
   46    50     1     0     0
SMALL
abcg2


@<TRIPOS>ATOM
      1 N1          -1.6950     0.9690     0.1710 nc         1 L5G      -0.456800
      2 N3          -2.6390     4.1510    -0.8620 nd         1 L5G      -0.069000
      3 C4          -2.2750    -1.2750    -0.2730 ca         1 L5G      -0.168500
      4 C5          -1.0260    -1.7560     0.1230 ca         1 L5G      -0.076500
      5 C6          -0.8320    -3.1110     0.3370 ca         1 L5G      -0.114500
      6 C7          -2.4720     0.1690    -0.4980 cd         1 L5G       0.392500
      7 C8          -3.4580     0.6470    -1.4280 cd         1 L5G      -0.143000
      8 C10         -2.7720     2.8440    -0.9110 cc         1 L5G      -0.145000
      9 C13          1.5020     1.3270     1.4400 ca         1 L5G       0.212100
     10 C15          2.2310     0.0190     3.2960 ca         1 L5G       0.394900
     11 C17          2.5990    -0.8290     1.2150 ca         1 L5G       0.323000
     12 C20          2.3980    -0.6850    -1.5760 ca         1 L5G      -0.198000
     13 C21          1.9360     0.3500    -0.8090 ca         1 L5G      -0.030000
     14 C22          3.3330    -2.8810    -3.0610 c3         1 L5G       0.149900
     15 C19          2.9690    -1.8230    -0.9610 ca         1 L5G       0.159100
     16 C18          3.0670    -1.8830     0.4120 ca         1 L5G      -0.155000
     17 C16          2.0190     0.3070     0.5960 ca         1 L5G      -0.140000
     18 N5           2.7020    -0.9540     2.5640 nb         1 L5G      -0.687000
     19 C14          1.6160     1.1830     2.8000 ca         1 L5G      -0.279000
     20 O1           0.9400     2.3720     0.8240 os         1 L5G      -0.343100
     21 C11         -1.1810     3.2960     0.4910 cc         1 L5G       0.328800
     22 N2          -1.8670     2.2650    -0.0650 na         1 L5G       0.138000
     23 N4          -1.6470     4.4160     0.0060 nd         1 L5G      -0.346700
     24 C9          -3.6160     1.9760    -1.6380 cc         1 L5G      -0.026000
     25 C3          -3.3250    -2.1760    -0.4440 ca         1 L5G      -0.076500
     26 C2          -3.1300    -3.5320    -0.2230 ca         1 L5G      -0.114500
     27 C1          -1.8830    -4.0030     0.1640 ca         1 L5G      -0.088000
     28 H5          -0.2010    -1.0690     0.2460 ha         1 L5G       0.124000
     29 H6           0.1450    -3.4700     0.6340 ha         1 L5G       0.122500
     30 H8          -4.0600    -0.0610    -1.9780 ha         1 L5G       0.140000
     31 H15          2.3260    -0.0920     4.3710 h4         1 L5G       0.017100
     32 H20          2.3090    -0.6170    -2.6520 ha         1 L5G       0.120000
     33 H21          1.4910     1.2050    -1.2980 ha         1 L5G       0.130000
     34 H22          2.2940    -2.8200    -3.3960 h1         1 L5G       0.042700
     35 H22A         3.9010    -2.0640    -3.5120 h1         1 L5G       0.042700
     36 H22B         3.7520    -3.8260    -3.3960 h1         1 L5G       0.042700
     37 H18          3.5010    -2.7510     0.8930 ha         1 L5G       0.146000
     38 H14          1.2690     1.9320     3.4990 ha         1 L5G       0.128000
     39 H12         -0.4660     2.5690     2.3480 h1         1 L5G       0.076700
     40 H12A         0.2790     4.0800     1.8020 h1         1 L5G       0.076700
     41 H9          -4.3400     2.3730    -2.3350 ha         1 L5G       0.154000
     42 H3          -4.3100    -1.8290    -0.7310 ha         1 L5G       0.124000
     43 H2          -3.9540    -4.2200    -0.3530 ha         1 L5G       0.122500
     44 H1          -1.7300    -5.0620     0.3290 ha         1 L5G       0.118000
     45 C12         -0.0900     3.1080     1.4740 c3         1 L5G       0.171300
     46 O2           3.4330    -2.8790    -1.6480 os         1 L5G      -0.339100
@<TRIPOS>BOND
     1     1     6 2   
     2     1    22 1   
     3     2     8 2   
     4     2    23 1   
     5     3     4 ar  
     6     3     6 1   
     7     3    25 ar  
     8     4     5 ar  
     9     4    28 1   
    10     5    27 ar  
    11     5    29 1   
    12     6     7 1   
    13     7    24 2   
    14     7    30 1   
    15     8    22 1   
    16     8    24 1   
    17     9    17 ar  
    18     9    19 ar  
    19     9    20 1   
    20    10    18 ar  
    21    10    19 ar  
    22    10    31 1   
    23    11    16 ar  
    24    11    17 ar  
    25    11    18 ar  
    26    12    13 ar  
    27    12    15 ar  
    28    12    32 1   
    29    13    17 ar  
    30    13    33 1   
    31    14    34 1   
    32    14    35 1   
    33    14    36 1   
    34    14    46 1   
    35    15    16 ar  
    36    15    46 1   
    37    16    37 1   
    38    19    38 1   
    39    20    45 1   
    40    21    22 1   
    41    21    23 2   
    42    21    45 1   
    43    24    41 1   
    44    25    26 ar  
    45    25    42 1   
    46    26    27 ar  
    47    26    43 1   
    48    27    44 1   
    49    39    45 1   
    50    40    45 1   
@<TRIPOS>SUBSTRUCTURE
     1 L5G         1 TEMP              0 ****  ****    0 ROOT
