@<TRIPOS>MOLECULE
L5H
   42    45     1     0     0
SMALL
bcc


@<TRIPOS>ATOM
      1 N1           0.6620     3.3690    -0.0100 ns         1 L5H      -0.454100
      2 N3          -2.1820     0.4650    -0.5250 ns         1 L5H      -0.444500
      3 C4           0.4860    -0.2730    -0.3140 ca         1 L5H      -0.123000
      4 C5           1.8190    -0.6120    -0.1840 ca         1 L5H       0.041800
      5 C6           2.7850     0.3770     0.0070 ca         1 L5H      -0.182300
      6 C7          -0.6110     3.8060    -0.1190 c          1 L5H       0.644500
      7 C8          -1.6760     2.7350    -0.3050 c          1 L5H       0.631500
      8 C10         -3.9710    -0.9050     0.3360 ca         1 L5H      -0.156600
      9 C13         -6.0430    -2.7230    -0.0290 ca         1 L5H      -0.097000
     10 C15         -5.0190    -0.9650     1.2520 ca         1 L5H      -0.083500
     11 C17          2.1960    -2.8560     0.7860 cc         1 L5H       0.417400
     12 C1           2.3920     1.7020     0.0650 ca         1 L5H      -0.097000
     13 C11         -3.9580    -1.7710    -0.7560 ca         1 L5H      -0.083500
     14 C12         -4.9920    -2.6790    -0.9340 ca         1 L5H      -0.135000
     15 C14         -6.0550    -1.8650     1.0640 ca         1 L5H      -0.135000
     16 C16          4.2350     0.0170     0.1560 c3         1 L5H       0.733200
     17 C18          2.6850    -3.9690    -0.9630 cd         1 L5H       0.302200
     18 C19          2.4790    -2.6920    -1.3860 cc         1 L5H      -0.245600
     19 C2           1.0540     2.0470    -0.0660 ca         1 L5H       0.036600
     20 C3           0.0950     1.0550    -0.2530 ca         1 L5H       0.083600
     21 C9          -2.8870     0.0770     0.5880 c          1 L5H       0.684700
     22 F1           4.4380    -0.7970     1.1990 f          1 L5H      -0.226300
     23 F2           4.7070    -0.6090    -0.9270 f          1 L5H      -0.226300
     24 F3           4.9990     1.0930     0.3480 f          1 L5H      -0.226300
     25 N2          -1.2380     1.4370    -0.3820 n          1 L5H      -0.232600
     26 N4           2.1690    -1.9810    -0.2530 na         1 L5H      -0.159000
     27 N5           2.5060    -4.0580     0.3920 nd         1 L5H      -0.664000
     28 O1          -2.6130     0.5040     1.6880 o          1 L5H      -0.549100
     29 O2          -0.9380     4.9680    -0.0730 o          1 L5H      -0.540500
     30 O3          -2.8360     3.0410    -0.3910 o          1 L5H      -0.525500
     31 H3           1.3770     4.0740     0.1210 hn         1 L5H       0.341500
     32 H4          -2.5570     0.3530    -1.4570 hn         1 L5H       0.344500
     33 H2          -0.2420    -1.0570    -0.4630 ha         1 L5H       0.173000
     34 H7          -6.8510    -3.4280    -0.1730 ha         1 L5H       0.138000
     35 H9          -5.0310    -0.3010     2.1050 ha         1 L5H       0.143000
     36 H10          1.9780    -2.5470     1.7970 h5         1 L5H       0.064100
     37 H1           3.1150     2.4920     0.2100 ha         1 L5H       0.164000
     38 H5          -3.1380    -1.7680    -1.4620 ha         1 L5H       0.143000
     39 H6          -4.9710    -3.3540    -1.7790 ha         1 L5H       0.139500
     40 H8          -6.8720    -1.9000     1.7720 ha         1 L5H       0.139500
     41 H11          2.9520    -4.8270    -1.5610 h4         1 L5H       0.042100
     42 H12          2.5200    -2.2310    -2.3590 h4         1 L5H       0.180000
@<TRIPOS>BOND
     1     1     6 1   
     2     1    19 1   
     3     1    31 1   
     4     2    21 1   
     5     2    25 1   
     6     2    32 1   
     7     3     4 ar  
     8     3    20 ar  
     9     3    33 1   
    10     4     5 ar  
    11     4    26 1   
    12     5    12 ar  
    13     5    16 1   
    14     6     7 1   
    15     6    29 2   
    16     7    25 1   
    17     7    30 2   
    18     8    10 ar  
    19     8    13 ar  
    20     8    21 1   
    21     9    14 ar  
    22     9    15 ar  
    23     9    34 1   
    24    10    15 ar  
    25    10    35 1   
    26    11    26 1   
    27    11    27 2   
    28    11    36 1   
    29    12    19 ar  
    30    12    37 1   
    31    13    14 ar  
    32    13    38 1   
    33    14    39 1   
    34    15    40 1   
    35    16    22 1   
    36    16    23 1   
    37    16    24 1   
    38    17    18 2   
    39    17    27 1   
    40    17    41 1   
    41    18    26 1   
    42    18    42 1   
    43    19    20 ar  
    44    20    25 1   
    45    21    28 2   
@<TRIPOS>SUBSTRUCTURE
     1 L5H         1 TEMP              0 ****  ****    0 ROOT
