@<TRIPOS>MOLECULE
L5H
   42    45     1     0     0
SMALL
No Charge or Current Charge


@<TRIPOS>ATOM
      1 N1           0.8550     3.5700    -0.2230 ns         1 L5H      -0.387100
      2 N3          -2.3850     0.8160    -0.5910 ns         1 L5H      -0.377500
      3 C4           0.3790    -0.1140    -0.1950 ca         1 L5H      -0.105000
      4 C5           1.7030    -0.5620    -0.0300 ca         1 L5H       0.041800
      5 C6           2.7660     0.3720     0.0730 ca         1 L5H      -0.182300
      6 C7          -0.3750     4.1550    -0.4290 c          1 L5H       0.502000
      7 C8          -1.5820     3.1250    -0.5720 c          1 L5H       0.489000
      8 C10         -3.8100    -1.0280     0.2350 ca         1 L5H      -0.156600
      9 C13         -5.6740    -3.1200    -0.2000 ca         1 L5H      -0.079000
     10 C15         -4.2500    -1.8420     1.3050 ca         1 L5H      -0.065500
     11 C17          2.0640    -2.6540     1.1840 cc         1 L5H       0.417400
     12 C1           2.4570     1.7520     0.0150 ca         1 L5H      -0.079000
     13 C11         -4.3250    -1.2820    -1.0620 ca         1 L5H      -0.065500
     14 C12         -5.2490    -2.3200    -1.2720 ca         1 L5H      -0.117000
     15 C14         -5.1730    -2.8790     1.0880 ca         1 L5H      -0.117000
     16 C16          4.2290    -0.0870     0.2300 c3         1 L5H       0.369300
     17 C18          1.9160    -4.0320    -0.4870 cd         1 L5H       0.236900
     18 C19          1.7810    -2.7830    -1.0450 cc         1 L5H      -0.213000
     19 C2           1.1320     2.1890    -0.1440 ca         1 L5H       0.036600
     20 C3           0.0750     1.2610    -0.2430 ca         1 L5H       0.083600
     21 C9          -2.8090     0.0790     0.5070 c          1 L5H       0.617700
     22 F1           4.4320    -0.7140     1.4100 f          1 L5H      -0.105000
     23 F2           4.5980    -0.9470    -0.7470 f          1 L5H      -0.105000
     24 F3           5.1130     0.9370     0.1850 f          1 L5H      -0.105000
     25 N2          -1.2810     1.7440    -0.3980 n          1 L5H      -0.165600
     26 N4           1.9250    -1.9360     0.0220 na         1 L5H      -0.108300
     27 N5           2.0870    -3.9500     0.8890 nd         1 L5H      -0.664000
     28 O1          -2.4020     0.3140     1.6390 o          1 L5H      -0.549100
     29 O2          -0.5080     5.3730    -0.4930 o          1 L5H      -0.465000
     30 O3          -2.7240     3.5150    -0.8140 o          1 L5H      -0.450000
     31 H3           1.6370     4.2080    -0.1300 hn         1 L5H       0.341500
     32 H4          -2.6730     0.5690    -1.5300 hn         1 L5H       0.344500
     33 H2          -0.4090    -0.8560    -0.2840 ha         1 L5H       0.155000
     34 H7          -6.3890    -3.9220    -0.3670 ha         1 L5H       0.120000
     35 H9          -3.8750    -1.6760     2.3130 ha         1 L5H       0.125000
     36 H10          2.1400    -2.1970     2.1640 h5         1 L5H       0.064100
     37 H1           3.2450     2.4980     0.0860 ha         1 L5H       0.146000
     38 H5          -4.0260    -0.6840    -1.9190 ha         1 L5H       0.125000
     39 H6          -5.6380    -2.5050    -2.2710 ha         1 L5H       0.121500
     40 H8          -5.5010    -3.4970     1.9220 ha         1 L5H       0.121500
     41 H11          1.8820    -4.9880    -0.9970 h4         1 L5H       0.042100
     42 H12          1.6130    -2.4600    -2.0640 h4         1 L5H       0.162000
@<TRIPOS>BOND
     1     1     6 1   
     2     1    19 1   
     3     1    31 1   
     4     2    21 1   
     5     2    25 1   
     6     2    32 1   
     7     3     4 ar  
     8     3    20 ar  
     9     3    33 1   
    10     4     5 ar  
    11     4    26 1   
    12     5    12 ar  
    13     5    16 1   
    14     6     7 1   
    15     6    29 2   
    16     7    25 1   
    17     7    30 2   
    18     8    10 ar  
    19     8    13 ar  
    20     8    21 1   
    21     9    14 ar  
    22     9    15 ar  
    23     9    34 1   
    24    10    15 ar  
    25    10    35 1   
    26    11    26 1   
    27    11    27 2   
    28    11    36 1   
    29    12    19 ar  
    30    12    37 1   
    31    13    14 ar  
    32    13    38 1   
    33    14    39 1   
    34    15    40 1   
    35    16    22 1   
    36    16    23 1   
    37    16    24 1   
    38    17    18 2   
    39    17    27 1   
    40    17    41 1   
    41    18    26 1   
    42    18    42 1   
    43    19    20 ar  
    44    20    25 1   
    45    21    28 2   
@<TRIPOS>SUBSTRUCTURE
     1 L5H         1 TEMP              0 ****  ****    0 ROOT
