@<TRIPOS>MOLECULE
L5I
   34    35     1     0     0
SMALL
No Charge or Current Charge


@<TRIPOS>ATOM
      1 N1           7.1770     1.4740    17.7420 nb         1 L5I      -0.646000
      2 C4          13.9860    -1.3780    23.5000 cx         1 L5I      -0.129400
      3 C5          13.9730    -2.6730    22.7210 cx         1 L5I      -0.129400
      4 C6          10.2940     0.4360    20.8110 c          1 L5I       0.599100
      5 C7           7.9020     0.4900    19.8570 ca         1 L5I      -0.078000
      6 C8           8.1460     1.1840    18.6430 ca         1 L5I       0.329900
      7 C10          5.5770     0.3890    19.1960 ca         1 L5I      -0.143000
      8 O           10.8870     1.0150    19.9080 o          1 L5I      -0.578100
      9 C1          11.0280    -0.0820    22.0690 c3         1 L5I      -0.131700
     10 C2          12.0650    -1.1730    21.6850 c3         1 L5I      -0.039400
     11 C3          12.7000    -1.8770    22.8830 cx         1 L5I      -0.129700
     12 C           11.6460     1.0950    22.8660 c3         1 L5I      -0.081100
     13 N            8.9270     0.1870    20.8040 ns         1 L5I      -0.152000
     14 C11          6.5770     0.0830    20.1380 ca         1 L5I      -0.087300
     15 C12          6.2190    -0.6670    21.4170 c3         1 L5I      -0.051800
     16 C9           5.9160     1.0790    18.0220 ca         1 L5I       0.313900
     17 H2          14.4740    -0.5190    23.0450 hc         1 L5I       0.072200
     18 H3          14.0640    -3.6020    23.2800 hc         1 L5I       0.072200
     19 H4          14.4530    -2.6810    21.7450 hc         1 L5I       0.072200
     20 H5           9.1390     1.5260    18.3660 h4         1 L5I       0.046100
     21 H6           4.5440     0.0980    19.3640 ha         1 L5I       0.121000
     22 H7          10.2810    -0.5550    22.7200 hc         1 L5I       0.045700
     23 H8          11.5660    -1.9270    21.0630 hc         1 L5I       0.055700
     24 H9          12.8440    -0.7260    21.0530 hc         1 L5I       0.055700
     25 H10         11.9580    -2.2910    23.5630 hc         1 L5I       0.071700
     26 H11         12.0540     0.7520    23.8240 hc         1 L5I       0.046367
     27 H12         12.4550     1.5720    22.2990 hc         1 L5I       0.046367
     28 H13         10.8860     1.8560    23.0820 hc         1 L5I       0.046367
     29 H14          8.5930    -0.3030    21.6240 hn         1 L5I       0.150000
     30 H15          6.7660    -1.6160    21.4850 hc         1 L5I       0.046033
     31 H16          6.4620    -0.0720    22.3050 hc         1 L5I       0.046033
     32 H17          5.1490    -0.9020    21.4640 hc         1 L5I       0.046033
     33 H18          5.1540     1.3240    17.2830 h4         1 L5I       0.021100
     34 H1          14.0840    -1.4360    24.5810 hc         1 L5I       0.072200
@<TRIPOS>BOND
     1     1     6 ar  
     2     1    16 ar  
     3     2     3 1   
     4     2    11 1   
     5     2    17 1   
     6     2    34 1   
     7     3    11 1   
     8     3    18 1   
     9     3    19 1   
    10     4     8 2   
    11     4     9 1   
    12     4    13 1   
    13     5     6 ar  
    14     5    13 1   
    15     5    14 ar  
    16     6    20 1   
    17     7    14 ar  
    18     7    16 ar  
    19     7    21 1   
    20     9    10 1   
    21     9    12 1   
    22     9    22 1   
    23    10    11 1   
    24    10    23 1   
    25    10    24 1   
    26    11    25 1   
    27    12    26 1   
    28    12    27 1   
    29    12    28 1   
    30    13    29 1   
    31    14    15 1   
    32    15    30 1   
    33    15    31 1   
    34    15    32 1   
    35    16    33 1   
@<TRIPOS>SUBSTRUCTURE
     1 L5I         1 TEMP              0 ****  ****    0 ROOT
