@<TRIPOS>MOLECULE
L5I
   34    35     1     0     0
SMALL
abcg2


@<TRIPOS>ATOM
      1 N1           7.4310     1.0330    17.6370 nb         1 L5I      -0.646000
      2 C4          14.0000    -1.2870    23.3960 cx         1 L5I      -0.129400
      3 C5          14.1220    -2.4650    22.4650 cx         1 L5I      -0.129400
      4 C6          10.1640     0.3740    20.9800 c          1 L5I       0.599100
      5 C7           7.9450     0.2620    19.8540 ca         1 L5I      -0.078000
      6 C8           8.3140     0.6810    18.5740 ca         1 L5I       0.329900
      7 C10          5.6760     0.5480    19.1880 ca         1 L5I      -0.143000
      8 O           10.6670     1.2020    20.2290 o          1 L5I      -0.578100
      9 C1          10.9180    -0.2060    22.1670 c3         1 L5I      -0.131700
     10 C2          12.0570    -1.1030    21.6450 c3         1 L5I      -0.039400
     11 C3          12.7740    -1.8570    22.7380 cx         1 L5I      -0.129700
     12 C           11.4090     0.9290    23.0690 c3         1 L5I      -0.081100
     13 N            8.8960    -0.1090    20.8210 ns         1 L5I      -0.152000
     14 C11          6.5820     0.1850    20.1790 ca         1 L5I      -0.087300
     15 C12          6.1180    -0.2580    21.5350 c3         1 L5I      -0.051800
     16 C9           6.1340     0.9670    17.9470 ca         1 L5I       0.313900
     17 H2          14.3560    -0.3270    23.0410 hc         1 L5I       0.072200
     18 H3          14.3440    -3.4350    22.8910 hc         1 L5I       0.072200
     19 H4          14.5570    -2.2930    21.4880 hc         1 L5I       0.072200
     20 H5           9.3590     0.7330    18.3080 h4         1 L5I       0.046100
     21 H6           4.6130     0.5100    19.3880 ha         1 L5I       0.121000
     22 H7          10.2330    -0.8370    22.7410 hc         1 L5I       0.045700
     23 H8          11.6350    -1.8190    20.9320 hc         1 L5I       0.055700
     24 H9          12.7720    -0.4870    21.0910 hc         1 L5I       0.055700
     25 H10         12.1200    -2.4370    23.3830 hc         1 L5I       0.071700
     26 H11         11.9050     0.5240    23.9500 hc         1 L5I       0.046367
     27 H12         12.1200     1.5620    22.5350 hc         1 L5I       0.046367
     28 H13         10.5750     1.5500    23.4010 hc         1 L5I       0.046367
     29 H14          8.5740    -0.7320    21.5450 hn         1 L5I       0.150000
     30 H15          6.3840    -1.3030    21.7240 hc         1 L5I       0.046033
     31 H16          6.5810     0.3410    22.3230 hc         1 L5I       0.046033
     32 H17          5.0370    -0.1670    21.6180 hc         1 L5I       0.046033
     33 H18          5.4320     1.2560    17.1720 h4         1 L5I       0.021100
     34 H1          14.1410    -1.4550    24.4550 hc         1 L5I       0.072200
@<TRIPOS>BOND
     1     1     6 ar  
     2     1    16 ar  
     3     2     3 1   
     4     2    11 1   
     5     2    17 1   
     6     2    34 1   
     7     3    11 1   
     8     3    18 1   
     9     3    19 1   
    10     4     8 2   
    11     4     9 1   
    12     4    13 1   
    13     5     6 ar  
    14     5    13 1   
    15     5    14 ar  
    16     6    20 1   
    17     7    14 ar  
    18     7    16 ar  
    19     7    21 1   
    20     9    10 1   
    21     9    12 1   
    22     9    22 1   
    23    10    11 1   
    24    10    23 1   
    25    10    24 1   
    26    11    25 1   
    27    12    26 1   
    28    12    27 1   
    29    12    28 1   
    30    13    29 1   
    31    14    15 1   
    32    15    30 1   
    33    15    31 1   
    34    15    32 1   
    35    16    33 1   
@<TRIPOS>SUBSTRUCTURE
     1 L5I         1 TEMP              0 ****  ****    0 ROOT
