@<TRIPOS>MOLECULE
L5J
   38    39     1     0     0
SMALL
abcg2


@<TRIPOS>ATOM
      1 C10         -1.5020    -0.3550    -0.1390 c5         1 L5J      -0.065700
      2 C13         -2.4320    -2.4560    -0.9650 c5         1 L5J      -0.086400
      3 C11         -3.0440    -0.3570     0.0190 c5         1 L5J      -0.041700
      4 C12         -1.1640    -1.6020    -0.9860 c5         1 L5J      -0.073400
      5 C14         -3.5410    -1.4100    -0.9730 c5         1 L5J      -0.067400
      6 C01          2.9260    -1.0910     1.1400 ca         1 L5J      -0.113000
      7 C02          3.4840     0.1450     0.8340 ca         1 L5J      -0.012300
      8 C03          2.6160     1.2280     0.6950 ca         1 L5J      -0.113000
      9 C04          1.2470     1.0740     0.8440 ca         1 L5J      -0.118000
     10 C05          0.6860    -0.1710     1.1320 ca         1 L5J      -0.100300
     11 C06          1.5520    -1.2480     1.2860 ca         1 L5J      -0.118000
     12 C07         -0.8040    -0.3380     1.2270 c3         1 L5J      -0.018100
     13 C08         -3.6730     1.0150    -0.1560 c3         1 L5J      -0.196400
     14 C09         -5.1870     1.0870     0.1070 c          1 L5J       0.715000
     15 C18          5.4020     0.4260    -0.8440 c          1 L5J       0.722000
     16 O15         -5.6570     0.3090     0.9620 o          1 L5J      -0.752000
     17 O16         -5.8270     1.9490    -0.5320 o          1 L5J      -0.752000
     18 O19          6.6060     0.1880    -1.0630 o          1 L5J      -0.733000
     19 O20          4.5460     0.7770    -1.6750 o          1 L5J      -0.733000
     20 H1          -1.1920     0.5450    -0.6790 hc         1 L5J       0.050700
     21 H2          -2.4860    -3.1580    -1.7980 hc         1 L5J       0.019200
     22 H3          -2.4790    -3.0440    -0.0430 hc         1 L5J       0.019200
     23 H4          -3.2820    -0.7160     1.0270 hc         1 L5J       0.054700
     24 H5          -0.9450    -1.3060    -2.0140 hc         1 L5J       0.035700
     25 H6          -0.2840    -2.1360    -0.6230 hc         1 L5J       0.035700
     26 H7          -3.6270    -0.9730    -1.9740 hc         1 L5J       0.042200
     27 H8          -4.5220    -1.8050    -0.7050 hc         1 L5J       0.042200
     28 H9           3.5750    -1.9510     1.2660 ha         1 L5J       0.100000
     29 H10          3.0170     2.2100     0.4740 ha         1 L5J       0.100000
     30 H11          0.5990     1.9360     0.7330 ha         1 L5J       0.091500
     31 H12          1.1510    -2.2260     1.5260 ha         1 L5J       0.091500
     32 H13         -1.2300     0.4730     1.8260 hc         1 L5J       0.035200
     33 H14         -1.0400    -1.2660     1.7570 hc         1 L5J       0.035200
     34 H15         -3.1900     1.7240     0.5300 hc         1 L5J       0.019700
     35 H16         -3.4560     1.3910    -1.1620 hc         1 L5J       0.019700
     36 H17          5.3080     1.2080     1.1480 hc         1 L5J       0.023700
     37 H18          5.4940    -0.5280     1.1030 hc         1 L5J       0.023700
     38 C17          4.9590     0.3030     0.6380 c3         1 L5J      -0.182100
@<TRIPOS>BOND
     1     1     3 1   
     2     1     4 1   
     3     1    12 1   
     4     1    20 1   
     5     2     4 1   
     6     2     5 1   
     7     2    21 1   
     8     2    22 1   
     9     3     5 1   
    10     3    13 1   
    11     3    23 1   
    12     4    24 1   
    13     4    25 1   
    14     5    26 1   
    15     5    27 1   
    16     6     7 ar  
    17     6    11 ar  
    18     6    28 1   
    19     7     8 ar  
    20     7    38 1   
    21     8     9 ar  
    22     8    29 1   
    23     9    10 ar  
    24     9    30 1   
    25    10    11 ar  
    26    10    12 1   
    27    11    31 1   
    28    12    32 1   
    29    12    33 1   
    30    13    14 1   
    31    13    34 1   
    32    13    35 1   
    33    14    16 1   
    34    14    17 1   
    35    15    18 1   
    36    15    19 1   
    37    15    38 1   
    38    36    38 1   
    39    37    38 1   
@<TRIPOS>SUBSTRUCTURE
     1 L5J         1 TEMP              0 ****  ****    0 ROOT
