@<TRIPOS>MOLECULE
L5J
   38    39     1     0     0
SMALL
No Charge or Current Charge


@<TRIPOS>ATOM
      1 C10         -1.5460    -0.3200    -0.0710 c5         1 L5J      -0.065700
      2 C13         -2.2480    -1.9900    -1.7220 c5         1 L5J      -0.086400
      3 C11         -3.0800    -0.5450     0.0810 c5         1 L5J      -0.041700
      4 C12         -1.1350    -1.6950    -0.6700 c5         1 L5J      -0.073400
      5 C14         -3.4150    -1.0190    -1.3630 c5         1 L5J      -0.067400
      6 C01          2.9490    -0.8150     1.3620 ca         1 L5J      -0.113000
      7 C02          3.5270     0.2960     0.7180 ca         1 L5J      -0.012300
      8 C03          2.6900     1.3250     0.2440 ca         1 L5J      -0.113000
      9 C04          1.2970     1.2450     0.4110 ca         1 L5J      -0.118000
     10 C05          0.7210     0.1340     1.0560 ca         1 L5J      -0.100300
     11 C06          1.5560    -0.8960     1.5300 ca         1 L5J      -0.118000
     12 C07         -0.7910     0.0480     1.2320 c3         1 L5J      -0.018100
     13 C08         -3.8880     0.6950     0.5620 c3         1 L5J      -0.196400
     14 C09         -5.4000     0.3980     0.6020 c          1 L5J       0.715000
     15 C18          5.4470    -0.2630    -0.7930 c          1 L5J       0.722000
     16 O15         -5.8600    -0.1150     1.6110 o          1 L5J      -0.752000
     17 O16         -6.0720     0.6660    -0.3830 o          1 L5J      -0.752000
     18 O19          5.6640    -1.4660    -0.8070 o          1 L5J      -0.733000
     19 O20          5.4340     0.4300    -1.8000 o          1 L5J      -0.733000
     20 H1          -1.3420     0.4860    -0.7880 hc         1 L5J       0.050700
     21 H2          -1.8940    -1.8140    -2.7440 hc         1 L5J       0.019200
     22 H3          -2.5640    -3.0380    -1.6710 hc         1 L5J       0.019200
     23 H4          -3.2820    -1.3480     0.8010 hc         1 L5J       0.054700
     24 H5          -0.1380    -1.6690    -1.1230 hc         1 L5J       0.035700
     25 H6          -1.1140    -2.4730     0.1030 hc         1 L5J       0.035700
     26 H7          -3.4430    -0.1740    -2.0610 hc         1 L5J       0.042200
     27 H8          -4.3900    -1.5140    -1.4230 hc         1 L5J       0.042200
     28 H9           3.5800    -1.6200     1.7310 ha         1 L5J       0.100000
     29 H10          3.1200     2.1890    -0.2580 ha         1 L5J       0.100000
     30 H11          0.6640     2.0470     0.0390 ha         1 L5J       0.091500
     31 H12          1.1260    -1.7630     2.0260 ha         1 L5J       0.091500
     32 H13         -1.1570     1.0120     1.6060 hc         1 L5J       0.035200
     33 H14         -1.0350    -0.6810     2.0140 hc         1 L5J       0.035200
     34 H15         -3.5360     0.9070     1.5790 hc         1 L5J       0.019700
     35 H16         -3.6790     1.5070    -0.1460 hc         1 L5J       0.019700
     36 H17          5.3000     1.4520     0.5370 hc         1 L5J       0.023700
     37 H18          5.4940    -0.1570     1.3790 hc         1 L5J       0.023700
     38 C17          5.0400     0.3860     0.5410 c3         1 L5J      -0.182100
@<TRIPOS>BOND
     1     1     3 1   
     2     1     4 1   
     3     1    12 1   
     4     1    20 1   
     5     2     4 1   
     6     2     5 1   
     7     2    21 1   
     8     2    22 1   
     9     3     5 1   
    10     3    13 1   
    11     3    23 1   
    12     4    24 1   
    13     4    25 1   
    14     5    26 1   
    15     5    27 1   
    16     6     7 ar  
    17     6    11 ar  
    18     6    28 1   
    19     7     8 ar  
    20     7    38 1   
    21     8     9 ar  
    22     8    29 1   
    23     9    10 ar  
    24     9    30 1   
    25    10    11 ar  
    26    10    12 1   
    27    11    31 1   
    28    12    32 1   
    29    12    33 1   
    30    13    14 1   
    31    13    34 1   
    32    13    35 1   
    33    14    16 1   
    34    14    17 1   
    35    15    18 1   
    36    15    19 1   
    37    15    38 1   
    38    36    38 1   
    39    37    38 1   
@<TRIPOS>SUBSTRUCTURE
     1 L5J         1 TEMP              0 ****  ****    0 ROOT
