@<TRIPOS>MOLECULE
L5K
   50    54     1     0     0
SMALL
No Charge or Current Charge


@<TRIPOS>ATOM
      1 CAX         33.4170   178.7300   330.6230 cx         1 L5K      -0.104900
      2 CAY         32.2970   178.4960   331.6010 cx         1 L5K      -0.104900
      3 CAW         31.9840   178.6520   330.1210 cx         1 L5K      -0.010000
      4 OAZ         31.4360   179.9140   329.7980 oh         1 L5K      -0.622000
      5 CAU         31.6150   177.3380   329.4070 c          1 L5K       0.623100
      6 OAV         32.3160   176.8560   328.5220 o          1 L5K      -0.584100
      7 NAT         30.4300   176.7830   329.8650 ns         1 L5K      -0.140000
      8 CAS         29.7500   175.5760   329.5450 ca         1 L5K      -0.004000
      9 CBA         28.6530   175.2200   330.3500 ca         1 L5K      -0.148000
     10 CAR         30.1320   174.7170   328.4920 ca         1 L5K      -0.132000
     11 CAQ         29.4300   173.5210   328.2680 ca         1 L5K      -0.072000
     12 CAP         28.3580   173.1640   329.1030 ca         1 L5K      -0.163000
     13 CAO         27.9700   174.0050   330.1560 ca         1 L5K       0.252000
     14 NAN         26.9420   173.5890   330.9980 nu         1 L5K      -0.858100
     15 SAM         26.6340   174.0190   332.5930 sy         1 L5K       1.144600
     16 OBB         26.0670   175.3680   332.5160 o          1 L5K      -0.526500
     17 OBC         25.8700   172.8710   333.0820 o          1 L5K      -0.526500
     18 CAL         28.2450   174.0500   333.3780 ca         1 L5K      -0.335500
     19 CBD         28.8060   175.2900   333.7680 ca         1 L5K       0.069000
     20 CBE         30.1100   175.2850   334.2900 cp         1 L5K      -0.131000
     21 CBF         31.0120   176.3500   334.7310 cp         1 L5K      -0.044000
     22 CBG         30.8820   177.7470   334.8080 ca         1 L5K      -0.065000
     23 CAA         31.9880   178.4940   335.2710 ca         1 L5K      -0.066000
     24 CAB         33.2070   177.8500   335.6490 ca         1 L5K      -0.158200
     25 NAC         34.3720   178.6590   336.1310 no         1 L5K       0.693200
     26 OAE         35.4070   178.0590   336.4530 o          1 L5K      -0.392500
     27 OAD         34.2490   179.8900   336.1840 o          1 L5K      -0.392500
     28 CAF         33.3110   176.4330   335.5630 ca         1 L5K      -0.038000
     29 CAG         32.1980   175.7240   335.1040 ca         1 L5K       0.062100
     30 OAH         32.0780   174.3590   334.9300 os         1 L5K      -0.163200
     31 CAI         30.8180   174.0940   334.4320 ca         1 L5K       0.144100
     32 CAJ         30.2810   172.8550   334.0760 ca         1 L5K      -0.131000
     33 CAK         28.9740   172.8390   333.5400 ca         1 L5K       0.007000
     34 H1          33.9050   179.7010   330.6390 hc         1 L5K       0.090950
     35 H2          34.0850   177.8970   330.4120 hc         1 L5K       0.090950
     36 H3          32.2240   177.5070   332.0490 hc         1 L5K       0.090950
     37 H4          32.0320   179.3110   332.2690 hc         1 L5K       0.090950
     38 H5          31.7300   180.1360   328.8840 ho         1 L5K       0.454000
     39 H6          29.9810   177.3280   330.5890 hn         1 L5K       0.174000
     40 H7          28.3460   175.8930   331.1420 ha         1 L5K       0.143000
     41 H8          30.9640   174.9580   327.8370 ha         1 L5K       0.153000
     42 H9          29.7270   172.8620   327.4540 ha         1 L5K       0.122000
     43 H10         27.8380   172.2260   328.9330 ha         1 L5K       0.117000
     44 H11         26.6060   172.6430   330.8910 hn         1 L5K       0.487000
     45 H12         28.2690   176.2300   333.6470 ha         1 L5K       0.151000
     46 H13         29.9570   178.2390   334.5150 ha         1 L5K       0.140000
     47 H14         31.8930   179.5770   335.3310 ha         1 L5K       0.158000
     48 H15         34.2190   175.9000   335.8390 ha         1 L5K       0.172000
     49 H16         30.8570   171.9410   334.1910 ha         1 L5K       0.145000
     50 H17         28.5380   171.8910   333.2290 ha         1 L5K       0.140000
@<TRIPOS>BOND
     1     1     2 1   
     2     1     3 1   
     3     1    34 1   
     4     1    35 1   
     5     2     3 1   
     6     2    36 1   
     7     2    37 1   
     8     3     4 1   
     9     3     5 1   
    10     4    38 1   
    11     5     6 2   
    12     5     7 1   
    13     7     8 1   
    14     7    39 1   
    15     8     9 ar  
    16     8    10 ar  
    17     9    13 ar  
    18     9    40 1   
    19    10    11 ar  
    20    10    41 1   
    21    11    12 ar  
    22    11    42 1   
    23    12    13 ar  
    24    12    43 1   
    25    13    14 1   
    26    14    15 1   
    27    14    44 1   
    28    15    16 2   
    29    15    17 2   
    30    15    18 1   
    31    18    19 ar  
    32    18    33 ar  
    33    19    20 ar  
    34    19    45 1   
    35    20    21 1   
    36    20    31 ar  
    37    21    22 ar  
    38    21    29 ar  
    39    22    23 ar  
    40    22    46 1   
    41    23    24 ar  
    42    23    47 1   
    43    24    25 1   
    44    24    28 ar  
    45    25    26 1   
    46    25    27 1   
    47    28    29 ar  
    48    28    48 1   
    49    29    30 1   
    50    30    31 1   
    51    31    32 ar  
    52    32    33 ar  
    53    32    49 1   
    54    33    50 1   
@<TRIPOS>SUBSTRUCTURE
     1 L5K         1 TEMP              0 ****  ****    0 ROOT
