@<TRIPOS>MOLECULE
L5K
   50    54     1     0     0
SMALL
bcc


@<TRIPOS>ATOM
      1 CAX         31.5360   180.4620   327.1860 cx         1 L5K      -0.104900
      2 CAY         31.8280   180.8990   328.5820 cx         1 L5K      -0.104900
      3 CAW         30.8030   179.8300   328.3330 cx         1 L5K      -0.033200
      4 OAZ         29.4770   180.1700   328.5620 oh         1 L5K      -0.559800
      5 CAU         31.2010   178.4290   328.7050 c          1 L5K       0.690100
      6 OAV         32.3330   178.0170   328.5130 o          1 L5K      -0.584100
      7 NAT         30.2020   177.7090   329.2670 ns         1 L5K      -0.466100
      8 CAS         30.2000   176.3790   329.6900 ca         1 L5K       0.088600
      9 CBA         28.9610   175.8500   330.0520 ca         1 L5K      -0.166000
     10 CAR         31.3370   175.5720   329.7610 ca         1 L5K      -0.150000
     11 CAQ         31.2130   174.2590   330.1910 ca         1 L5K      -0.090000
     12 CAP         29.9900   173.7330   330.5700 ca         1 L5K      -0.181000
     13 CAO         28.8610   174.5410   330.4960 ca         1 L5K       0.113600
     14 NAN         27.5890   174.0290   330.8670 nu         1 L5K      -0.664500
     15 SAM         26.9580   174.4980   332.3370 sy         1 L5K       1.286200
     16 OBB         26.8540   175.9440   332.3200 o          1 L5K      -0.597300
     17 OBC         25.7760   173.6790   332.5310 o          1 L5K      -0.597300
     18 CAL         28.1800   174.0520   333.5360 ca         1 L5K      -0.335500
     19 CBD         29.1510   174.9790   333.8770 ca         1 L5K       0.051000
     20 CBE         30.1340   174.5680   334.7650 cp         1 L5K      -0.131000
     21 CBF         31.2830   175.1940   335.3650 cp         1 L5K      -0.044000
     22 CBG         31.8740   176.4490   335.2930 ca         1 L5K      -0.083000
     23 CAA         33.0090   176.6890   336.0440 ca         1 L5K      -0.084000
     24 CAB         33.5340   175.6780   336.8500 ca         1 L5K      -0.158200
     25 NAC         34.7290   175.9580   337.6330 no         1 L5K       0.313200
     26 OAE         35.1750   175.0720   338.3240 o          1 L5K      -0.202500
     27 OAD         35.2140   177.0620   337.5550 o          1 L5K      -0.202500
     28 CAF         32.9740   174.4120   336.9450 ca         1 L5K      -0.056000
     29 CAG         31.8460   174.2110   336.1830 ca         1 L5K       0.062100
     30 OAH         31.1400   173.0530   336.1270 os         1 L5K      -0.163200
     31 CAI         30.1120   173.2670   335.2760 ca         1 L5K       0.144100
     32 CAJ         29.1460   172.3360   334.9380 ca         1 L5K      -0.149000
     33 CAK         28.1720   172.7500   334.0480 ca         1 L5K      -0.011000
     34 H1          30.9590   181.1270   326.5560 hc         1 L5K       0.090950
     35 H2          32.2720   179.8630   326.6660 hc         1 L5K       0.090950
     36 H3          32.7670   180.6070   329.0330 hc         1 L5K       0.090950
     37 H4          31.4420   181.8580   328.9040 hc         1 L5K       0.090950
     38 H5          28.9620   179.9710   327.7710 ho         1 L5K       0.415000
     39 H6          29.3240   178.2000   329.3670 hn         1 L5K       0.340500
     40 H7          28.0690   176.4570   329.9690 ha         1 L5K       0.161000
     41 H8          32.3060   175.9520   329.4860 ha         1 L5K       0.171000
     42 H9          32.0970   173.6390   330.2440 ha         1 L5K       0.140000
     43 H10         29.9100   172.7110   330.9200 ha         1 L5K       0.135000
     44 H11         27.4990   173.0250   330.7380 hn         1 L5K       0.431800
     45 H12         29.1440   175.9840   333.4780 ha         1 L5K       0.169000
     46 H13         31.4620   177.2290   334.6680 ha         1 L5K       0.158000
     47 H14         33.4800   177.6600   336.0020 ha         1 L5K       0.176000
     48 H15         33.3860   173.6340   337.5720 ha         1 L5K       0.190000
     49 H16         29.1450   171.3360   335.3470 ha         1 L5K       0.163000
     50 H17         27.3980   172.0530   333.7600 ha         1 L5K       0.158000
@<TRIPOS>BOND
     1     1     2 1   
     2     1     3 1   
     3     1    34 1   
     4     1    35 1   
     5     2     3 1   
     6     2    36 1   
     7     2    37 1   
     8     3     4 1   
     9     3     5 1   
    10     4    38 1   
    11     5     6 2   
    12     5     7 1   
    13     7     8 1   
    14     7    39 1   
    15     8     9 ar  
    16     8    10 ar  
    17     9    13 ar  
    18     9    40 1   
    19    10    11 ar  
    20    10    41 1   
    21    11    12 ar  
    22    11    42 1   
    23    12    13 ar  
    24    12    43 1   
    25    13    14 1   
    26    14    15 1   
    27    14    44 1   
    28    15    16 2   
    29    15    17 2   
    30    15    18 1   
    31    18    19 ar  
    32    18    33 ar  
    33    19    20 ar  
    34    19    45 1   
    35    20    21 1   
    36    20    31 ar  
    37    21    22 ar  
    38    21    29 ar  
    39    22    23 ar  
    40    22    46 1   
    41    23    24 ar  
    42    23    47 1   
    43    24    25 1   
    44    24    28 ar  
    45    25    26 1   
    46    25    27 1   
    47    28    29 ar  
    48    28    48 1   
    49    29    30 1   
    50    30    31 1   
    51    31    32 ar  
    52    32    33 ar  
    53    32    49 1   
    54    33    50 1   
@<TRIPOS>SUBSTRUCTURE
     1 L5K         1 TEMP              0 ****  ****    0 ROOT
