@<TRIPOS>MOLECULE
L5L
   32    34     1     0     0
SMALL
abcg2


@<TRIPOS>ATOM
      1 C01         -8.1490    10.3790    11.8140 c3         1 L5L       0.148900
      2 C03         -8.0260     8.5770    10.2790 ca         1 L5L       0.140100
      3 C04         -9.3760     8.2720    10.4160 ca         1 L5L      -0.176500
      4 C05         -9.9310     7.2370     9.6650 ca         1 L5L      -0.057500
      5 C06         -9.1720     6.4940     8.7750 ca         1 L5L      -0.109300
      6 C07         -7.8170     6.8110     8.6570 ca         1 L5L      -0.057500
      7 C08         -7.2470     7.8320     9.3890 ca         1 L5L      -0.176500
      8 C09         -9.7300     5.3460     7.9540 c6         1 L5L       0.289100
      9 C11         -9.9160     3.5740     9.6020 c6         1 L5L       0.154800
     10 C12        -11.3950     3.2780     9.3290 c6         1 L5L      -0.043100
     11 C13        -11.9700     4.4020     8.5330 cc         1 L5L      -0.202300
     12 C15        -13.3720     6.0400     7.3150 cc         1 L5L      -0.239000
     13 C16        -12.0440     6.2960     7.1930 cd         1 L5L      -0.113000
     14 C17        -11.2340     5.3510     7.8910 cd         1 L5L      -0.143300
     15 N10         -9.1980     4.0770     8.4450 n7         1 L5L      -0.845400
     16 O02         -7.3910     9.5590    10.9500 os         1 L5L      -0.342100
     17 S14        -13.6570     4.6480     8.2830 ss         1 L5L       0.187000
     18 H1          -7.4610    11.1150    12.2260 h1         1 L5L       0.039367
     19 H2          -8.9480    10.9050    11.2840 h1         1 L5L       0.039367
     20 H3          -8.5900     9.8120    12.6380 h1         1 L5L       0.039367
     21 H4         -10.0140     8.8210    11.0950 ha         1 L5L       0.120500
     22 H5         -10.9850     7.0220     9.7900 ha         1 L5L       0.117000
     23 H6          -7.1960     6.2470     7.9710 ha         1 L5L       0.117000
     24 H7          -6.1960     8.0670     9.2760 ha         1 L5L       0.120500
     25 H8          -9.3470     5.4650     6.9340 h1         1 L5L       0.065700
     26 H9          -9.4210     2.6690     9.9560 h1         1 L5L       0.059200
     27 H10         -9.8340     4.3110    10.4060 h1         1 L5L       0.059200
     28 H11        -11.9310     3.1410    10.2720 hc         1 L5L       0.055200
     29 H12        -11.4930     2.3380     8.7770 hc         1 L5L       0.055200
     30 H13        -14.1980     6.5890     6.8890 h4         1 L5L       0.151000
     31 H14        -11.6470     7.1270     6.6250 ha         1 L5L       0.138000
     32 H15         -9.2480     3.3930     7.6990 hn         1 L5L       0.410000
@<TRIPOS>BOND
     1     1    16 1   
     2     1    18 1   
     3     1    19 1   
     4     1    20 1   
     5     2     3 ar  
     6     2     7 ar  
     7     2    16 1   
     8     3     4 ar  
     9     3    21 1   
    10     4     5 ar  
    11     4    22 1   
    12     5     6 ar  
    13     5     8 1   
    14     6     7 ar  
    15     6    23 1   
    16     7    24 1   
    17     8    14 1   
    18     8    15 1   
    19     8    25 1   
    20     9    10 1   
    21     9    15 1   
    22     9    26 1   
    23     9    27 1   
    24    10    11 1   
    25    10    28 1   
    26    10    29 1   
    27    11    14 2   
    28    11    17 1   
    29    12    13 2   
    30    12    17 1   
    31    12    30 1   
    32    13    14 1   
    33    13    31 1   
    34    15    32 1   
@<TRIPOS>SUBSTRUCTURE
     1 L5L         1 TEMP              0 ****  ****    0 ROOT
