@<TRIPOS>MOLECULE
L5L
   32    34     1     0     0
SMALL
No Charge or Current Charge


@<TRIPOS>ATOM
      1 C01         -8.1210    10.3670    11.9610 c3         1 L5L       0.148900
      2 C03         -8.0320     8.6290    10.2110 ca         1 L5L       0.140100
      3 C04         -9.3260     8.1520    10.5100 ca         1 L5L      -0.176500
      4 C05         -9.8680     7.0780     9.7810 ca         1 L5L      -0.057500
      5 C06         -9.1270     6.4680     8.7460 ca         1 L5L      -0.109300
      6 C07         -7.8350     6.9480     8.4550 ca         1 L5L      -0.057500
      7 C08         -7.2940     8.0220     9.1840 ca         1 L5L      -0.176500
      8 C09         -9.6960     5.2950     7.9270 c6         1 L5L       0.289100
      9 C11         -9.9520     3.6000     9.7150 c6         1 L5L       0.154800
     10 C12        -11.4660     3.3710     9.4460 c6         1 L5L      -0.043100
     11 C13        -12.0160     4.4410     8.5330 cc         1 L5L      -0.202300
     12 C15        -13.3130     6.0400     7.1000 cc         1 L5L      -0.239000
     13 C16        -11.9540     6.2110     7.0170 cd         1 L5L      -0.113000
     14 C17        -11.2150     5.3030     7.8250 cd         1 L5L      -0.143300
     15 N10         -9.2330     3.9930     8.4730 n7         1 L5L      -0.845400
     16 O02         -7.4490     9.6780    10.8920 os         1 L5L      -0.342100
     17 S14        -13.7220     4.7270     8.2030 ss         1 L5L       0.187000
     18 H1          -7.4820    11.1630    12.3620 h1         1 L5L       0.039367
     19 H2          -9.0530    10.8250    11.6050 h1         1 L5L       0.039367
     20 H3          -8.3590     9.6770    12.7810 h1         1 L5L       0.039367
     21 H4          -9.9240     8.5980    11.3000 ha         1 L5L       0.120500
     22 H5         -10.8660     6.7220    10.0270 ha         1 L5L       0.117000
     23 H6          -7.2480     6.4870     7.6640 ha         1 L5L       0.117000
     24 H7          -6.2960     8.3850     8.9510 ha         1 L5L       0.120500
     25 H8          -9.2920     5.3910     6.9070 h1         1 L5L       0.065700
     26 H9          -9.5140     2.6780    10.1260 h1         1 L5L       0.059200
     27 H10         -9.8290     4.3830    10.4780 h1         1 L5L       0.059200
     28 H11        -12.0090     3.3450    10.4000 hc         1 L5L       0.055200
     29 H12        -11.6050     2.3830     8.9860 hc         1 L5L       0.055200
     30 H13        -14.1040     6.5840     6.6010 h4         1 L5L       0.151000
     31 H14        -11.4880     6.9700     6.3950 ha         1 L5L       0.138000
     32 H15         -9.4450     3.2820     7.7660 hn         1 L5L       0.410000
@<TRIPOS>BOND
     1     1    16 1   
     2     1    18 1   
     3     1    19 1   
     4     1    20 1   
     5     2     3 ar  
     6     2     7 ar  
     7     2    16 1   
     8     3     4 ar  
     9     3    21 1   
    10     4     5 ar  
    11     4    22 1   
    12     5     6 ar  
    13     5     8 1   
    14     6     7 ar  
    15     6    23 1   
    16     7    24 1   
    17     8    14 1   
    18     8    15 1   
    19     8    25 1   
    20     9    10 1   
    21     9    15 1   
    22     9    26 1   
    23     9    27 1   
    24    10    11 1   
    25    10    28 1   
    26    10    29 1   
    27    11    14 2   
    28    11    17 1   
    29    12    13 2   
    30    12    17 1   
    31    12    30 1   
    32    13    14 1   
    33    13    31 1   
    34    15    32 1   
@<TRIPOS>SUBSTRUCTURE
     1 L5L         1 TEMP              0 ****  ****    0 ROOT
