@<TRIPOS>MOLECULE
L5N
   42    45     1     0     0
SMALL
No Charge or Current Charge


@<TRIPOS>ATOM
      1 CAT         25.2580   176.2160    28.0610 ca         1 L5N      -0.119500
      2 CAX         24.3330   176.4320    29.0970 ca         1 L5N      -0.095000
      3 CBA         22.9710   176.0860    28.9360 ca         1 L5N      -0.118600
      4 CBB         21.9680   176.3190    30.0570 c          1 L5N       0.712600
      5 OBD         20.8000   176.0040    29.8740 o          1 L5N      -0.717500
      6 OBC         22.3630   176.8150    31.1040 o          1 L5N      -0.717500
      7 CAY         22.5650   175.5170    27.7060 ca         1 L5N      -0.095000
      8 CAU         23.4920   175.3030    26.6710 ca         1 L5N      -0.119500
      9 CAQ         24.8430   175.6520    26.8420 ca         1 L5N      -0.162300
     10 CAN         25.8480   175.4120    25.7230 c3         1 L5N       0.168300
     11 NAI         26.4900   174.0940    25.8140 n          1 L5N      -0.373400
     12 CAE         25.9710   172.9480    25.2170 c          1 L5N       0.587600
     13 OAK         24.9590   172.8580    24.5350 o          1 L5N      -0.489000
     14 CAD         27.6650   173.8650    26.5230 c          1 L5N       0.596600
     15 OAJ         28.3330   174.6850    27.1360 o          1 L5N      -0.519000
     16 CAA         27.9410   172.4060    26.3670 ca         1 L5N      -0.215600
     17 CAB         26.9270   171.8610    25.5850 ca         1 L5N      -0.109600
     18 CAF         26.9050   170.5000    25.2600 ca         1 L5N      -0.080000
     19 CAL         27.9500   169.6910    25.7510 ca         1 L5N      -0.078000
     20 CAH         28.9830   170.2440    26.5470 ca         1 L5N      -0.132000
     21 CAC         28.9940   171.6260    26.8710 ca         1 L5N       0.048000
     22 NAG         29.9920   172.2540    27.6630 ns         1 L5N      -0.128000
     23 CAM         31.1310   171.7730    28.2860 c          1 L5N       0.656700
     24 OAP         31.4960   170.6050    28.2450 o          1 L5N      -0.595100
     25 CAO         31.8890   172.8070    29.0210 cc         1 L5N      -0.312600
     26 CAS         31.5750   174.1480    29.1370 cd         1 L5N      -0.070000
     27 CAW         32.5190   174.8710    29.9190 cd         1 L5N      -0.129000
     28 CAV         33.5400   174.0890    30.3930 cc         1 L5N      -0.043000
     29 ClA         34.8610   174.6390    31.3780 cl         1 L5N      -0.145000
     30 SAR         33.3720   172.4110    29.8860 ss         1 L5N       0.342000
     31 H1          26.3010   176.4880    28.2090 ha         1 L5N       0.092000
     32 H2          24.6810   176.8700    30.0300 ha         1 L5N       0.128000
     33 H4          21.5250   175.2380    27.5470 ha         1 L5N       0.128000
     34 H5          23.1560   174.8620    25.7350 ha         1 L5N       0.092000
     35 H6          26.6210   176.1910    25.7520 h1         1 L5N       0.056700
     36 H7          25.3440   175.5000    24.7510 h1         1 L5N       0.056700
     37 H8          26.1090   170.0800    24.6480 ha         1 L5N       0.137000
     38 H9          27.9620   168.6290    25.5160 ha         1 L5N       0.116000
     39 H10         29.7630   169.5790    26.9010 ha         1 L5N       0.150000
     40 H11         29.8370   173.2440    27.7960 hn         1 L5N       0.191000
     41 H12         30.7070   174.6260    28.6900 ha         1 L5N       0.155000
     42 H13         32.4400   175.9350    30.1210 ha         1 L5N       0.152000
@<TRIPOS>BOND
     1     1     2 ar  
     2     1     9 ar  
     3     1    31 1   
     4     2     3 ar  
     5     2    32 1   
     6     3     4 1   
     7     3     7 ar  
     8     4     5 1   
     9     4     6 1   
    10     7     8 ar  
    11     7    33 1   
    12     8     9 ar  
    13     8    34 1   
    14     9    10 1   
    15    10    11 1   
    16    10    35 1   
    17    10    36 1   
    18    11    12 1   
    19    11    14 1   
    20    12    13 2   
    21    12    17 1   
    22    14    15 2   
    23    14    16 1   
    24    16    17 ar  
    25    16    21 ar  
    26    17    18 ar  
    27    18    19 ar  
    28    18    37 1   
    29    19    20 ar  
    30    19    38 1   
    31    20    21 ar  
    32    20    39 1   
    33    21    22 1   
    34    22    23 1   
    35    22    40 1   
    36    23    24 2   
    37    23    25 1   
    38    25    26 2   
    39    25    30 1   
    40    26    27 1   
    41    26    41 1   
    42    27    28 2   
    43    27    42 1   
    44    28    29 1   
    45    28    30 1   
@<TRIPOS>SUBSTRUCTURE
     1 L5N         1 TEMP              0 ****  ****    0 ROOT
