@<TRIPOS>MOLECULE
L5N
   42    45     1     0     0
SMALL
bcc


@<TRIPOS>ATOM
      1 CAT         25.2300   176.5950    27.5970 ca         1 L5N      -0.137500
      2 CAX         24.5000   176.8510    28.7500 ca         1 L5N      -0.113000
      3 CBA         23.3600   176.1140    29.0560 ca         1 L5N      -0.118600
      4 CBB         22.5690   176.3870    30.3340 c          1 L5N       0.923200
      5 OBD         21.5380   175.7100    30.5050 o          1 L5N      -0.822800
      6 OBC         23.0280   177.2620    31.0920 o          1 L5N      -0.822800
      7 CAY         22.9640   175.1190    28.1640 ca         1 L5N      -0.113000
      8 CAU         23.6880   174.8620    27.0100 ca         1 L5N      -0.137500
      9 CAQ         24.8350   175.5960    26.7160 ca         1 L5N      -0.162300
     10 CAN         25.6370   175.3000    25.4750 c3         1 L5N       0.168300
     11 NAI         26.3510   174.0400    25.5710 n          1 L5N      -0.507400
     12 CAE         25.9350   172.8480    24.9970 c          1 L5N       0.730100
     13 OAK         24.9510   172.6990    24.3200 o          1 L5N      -0.564500
     14 CAD         27.5070   173.8750    26.3110 c          1 L5N       0.739100
     15 OAJ         28.0760   174.7540    26.9180 o          1 L5N      -0.594500
     16 CAA         27.8820   172.4530    26.1930 ca         1 L5N      -0.215600
     17 CAB         26.9380   171.8300    25.3940 ca         1 L5N      -0.109600
     18 CAF         27.0000   170.4920    25.0900 ca         1 L5N      -0.098000
     19 CAL         28.0760   169.7880    25.6300 ca         1 L5N      -0.096000
     20 CAH         29.0320   170.3910    26.4360 ca         1 L5N      -0.150000
     21 CAC         28.9530   171.7590    26.7470 ca         1 L5N       0.140600
     22 NAG         29.8390   172.4530    27.5570 ns         1 L5N      -0.454100
     23 CAM         30.8950   171.9600    28.2610 c          1 L5N       0.723700
     24 OAP         31.2760   170.8040    28.2170 o          1 L5N      -0.595100
     25 CAO         31.5850   172.9240    29.1300 cc         1 L5N      -0.167700
     26 CAS         31.3770   174.2470    29.4040 cd         1 L5N      -0.088000
     27 CAW         32.2970   174.7680    30.3420 cd         1 L5N      -0.147000
     28 CAV         33.1790   173.8140    30.7540 cc         1 L5N       0.010300
     29 CLA         34.4420   174.0200    31.8790 cl         1 L5N      -0.053400
     30 SAR         32.9170   172.2900    30.0210 ss         1 L5N       0.052200
     31 H1          26.1160   177.1790    27.3810 ha         1 L5N       0.110000
     32 H2          24.8260   177.6330    29.4240 ha         1 L5N       0.146000
     33 H4          22.0760   174.5390    28.3760 ha         1 L5N       0.146000
     34 H5          23.3530   174.0860    26.3320 ha         1 L5N       0.110000
     35 H6          26.3620   176.0920    25.2860 h1         1 L5N       0.056700
     36 H7          24.9930   175.2390    24.5990 h1         1 L5N       0.056700
     37 H8          26.2620   170.0060    24.4680 ha         1 L5N       0.155000
     38 H9          28.1790   168.7320    25.4220 ha         1 L5N       0.134000
     39 H10         29.8360   169.7880    26.8220 ha         1 L5N       0.168000
     40 H11         29.6250   173.4350    27.6630 hn         1 L5N       0.357500
     41 H12         30.5940   174.8510    28.9660 ha         1 L5N       0.173000
     42 H13         32.3010   175.7890    30.6930 ha         1 L5N       0.170000
@<TRIPOS>BOND
     1     1     2 ar  
     2     1     9 ar  
     3     1    31 1   
     4     2     3 ar  
     5     2    32 1   
     6     3     4 1   
     7     3     7 ar  
     8     4     5 1   
     9     4     6 1   
    10     7     8 ar  
    11     7    33 1   
    12     8     9 ar  
    13     8    34 1   
    14     9    10 1   
    15    10    11 1   
    16    10    35 1   
    17    10    36 1   
    18    11    12 1   
    19    11    14 1   
    20    12    13 2   
    21    12    17 1   
    22    14    15 2   
    23    14    16 1   
    24    16    17 ar  
    25    16    21 ar  
    26    17    18 ar  
    27    18    19 ar  
    28    18    37 1   
    29    19    20 ar  
    30    19    38 1   
    31    20    21 ar  
    32    20    39 1   
    33    21    22 1   
    34    22    23 1   
    35    22    40 1   
    36    23    24 2   
    37    23    25 1   
    38    25    26 2   
    39    25    30 1   
    40    26    27 1   
    41    26    41 1   
    42    27    28 2   
    43    27    42 1   
    44    28    29 1   
    45    28    30 1   
@<TRIPOS>SUBSTRUCTURE
     1 L5N         1 TEMP              0 ****  ****    0 ROOT
