@<TRIPOS>MOLECULE
L5P
   43    42     1     0     0
SMALL
No Charge or Current Charge


@<TRIPOS>ATOM
      1 N            7.5210     2.1140    -0.3330 n8         1 L5P      -0.883800
      2 CA           7.5220     0.8110     0.4370 c3         1 L5P       0.015500
      3 CB           6.3440    -0.0960    -0.0140 c3         1 L5P      -0.049400
      4 CG           4.9370     0.4850     0.2740 c3         1 L5P      -0.073400
      5 CD           3.7930    -0.4710    -0.1310 c3         1 L5P      -0.079400
      6 CE           2.3940     0.1110     0.1580 c3         1 L5P       0.161800
      7 NZ           1.3510    -0.8460    -0.2450 n7         1 L5P      -0.802200
      8 C1           8.8820    -0.0160     0.4440 c          1 L5P       0.902600
      9 O            9.4370    -0.2530    -0.6250 o          1 L5P      -0.848300
     10 O4          -1.0540    -1.9850    -1.5700 o          1 L5P      -0.539100
     11 C3          -1.1470    -1.4010    -0.4900 c          1 L5P       0.553100
     12 C2          -0.0560    -0.3990     0.0010 c3         1 L5P       0.059800
     13 C5          -2.3390    -1.6780     0.4740 c3         1 L5P       0.013100
     14 O13         -2.8630    -3.0200     0.2960 oh         1 L5P      -0.581800
     15 C6          -3.4770    -0.6310     0.3010 c3         1 L5P       0.100100
     16 O14         -2.9470     0.6930     0.4590 oh         1 L5P      -0.604800
     17 C7          -4.6650    -0.8690     1.2960 c3         1 L5P       0.204400
     18 O8          -5.6120     0.2240     1.3540 os         1 L5P      -0.549200
     19 P9          -6.1600     1.0400     0.0750 p5         1 L5P       1.274900
     20 O12         -5.0840     1.9290    -0.4420 o          1 L5P      -0.927167
     21 O11         -6.6050     0.0890    -0.9790 o          1 L5P      -0.927167
     22 O10         -7.3170     1.8720     0.5030 o          1 L5P      -0.927167
     23 H1           8.2650     2.7190     0.0280 hn         1 L5P       0.320800
     24 H2           7.8050     1.9200    -1.3000 hn         1 L5P       0.320800
     25 H4           7.3330     1.0790     1.4860 h1         1 L5P       0.034700
     26 H5           6.4400    -0.3130    -1.0850 hc         1 L5P       0.037200
     27 H6           6.4310    -1.0580     0.5070 hc         1 L5P       0.037200
     28 H7           4.8540     0.7120     1.3440 hc         1 L5P       0.033700
     29 H8           4.8140     1.4330    -0.2640 hc         1 L5P       0.033700
     30 H9           3.8760    -0.6980    -1.2010 hc         1 L5P       0.038700
     31 H10          3.9070    -1.4180     0.4110 hc         1 L5P       0.038700
     32 H11          2.3120     0.3330     1.2300 h1         1 L5P       0.020200
     33 H12          2.2770     1.0550    -0.3920 h1         1 L5P       0.020200
     34 H13          1.4590    -1.0350    -1.2500 hn         1 L5P       0.365800
     35 OXT          9.4000    -0.2880     1.5220 o          1 L5P      -0.848300
     36 H16         -0.2120    -0.2310     1.0750 h1         1 L5P       0.047200
     37 H17         -0.2520     0.5560    -0.5040 h1         1 L5P       0.047200
     38 H18         -1.9480    -1.5790     1.4950 h1         1 L5P       0.069700
     39 H19         -2.7070    -3.2700    -0.6430 ho         1 L5P       0.412000
     40 H20         -3.8720    -0.7420    -0.7180 h1         1 L5P       0.077700
     41 H21         -3.6970     1.2910     0.1680 ho         1 L5P       0.394000
     42 H22         -5.1870    -1.7920     1.0120 h1         1 L5P       0.003700
     43 H23         -4.2490    -1.0350     2.2990 h1         1 L5P       0.003700
@<TRIPOS>BOND
     1     1     2 1   
     2     1    23 1   
     3     1    24 1   
     4     2     3 1   
     5     2     8 1   
     6     2    25 1   
     7     3     4 1   
     8     3    26 1   
     9     3    27 1   
    10     4     5 1   
    11     4    28 1   
    12     4    29 1   
    13     5     6 1   
    14     5    30 1   
    15     5    31 1   
    16     6     7 1   
    17     6    32 1   
    18     6    33 1   
    19     7    12 1   
    20     7    34 1   
    21     8     9 1   
    22     8    35 1   
    23    10    11 2   
    24    11    12 1   
    25    11    13 1   
    26    12    36 1   
    27    12    37 1   
    28    13    14 1   
    29    13    15 1   
    30    13    38 1   
    31    14    39 1   
    32    15    16 1   
    33    15    17 1   
    34    15    40 1   
    35    16    41 1   
    36    17    18 1   
    37    17    42 1   
    38    17    43 1   
    39    18    19 1   
    40    19    20 1   
    41    19    21 1   
    42    19    22 1   
@<TRIPOS>SUBSTRUCTURE
     1 L5P         1 TEMP              0 ****  ****    0 ROOT
