@<TRIPOS>MOLECULE
L5P
   43    42     1     0     0
SMALL
bcc


@<TRIPOS>ATOM
      1 N            7.3200     2.1840     0.4820 n8         1 L5P      -0.883800
      2 CA           7.5140     0.7410     0.4690 c3         1 L5P       0.015500
      3 CB           6.3240     0.0570    -0.2070 c3         1 L5P      -0.049400
      4 CG           4.9930     0.2890     0.4960 c3         1 L5P      -0.073400
      5 CD           3.8330    -0.4100    -0.2010 c3         1 L5P      -0.079400
      6 CE           2.5140    -0.2490     0.5380 c3         1 L5P       0.161800
      7 NZ           1.4390    -0.9320    -0.1570 n7         1 L5P      -0.802200
      8 C1           8.8310     0.2530    -0.1840 c          1 L5P       0.902600
      9 O            9.4770     1.0700    -0.8680 o          1 L5P      -0.848300
     10 O4          -0.7790    -2.1700    -1.2060 o          1 L5P      -0.539100
     11 C3          -0.9350    -1.5500    -0.1790 c          1 L5P       0.553100
     12 C2           0.1820    -0.8440     0.5320 c3         1 L5P       0.059800
     13 C5          -2.3200    -1.4720     0.4610 c3         1 L5P       0.013100
     14 O13         -2.9090    -2.7450     0.5080 oh         1 L5P      -0.581800
     15 C6          -3.1790    -0.4620    -0.3220 c3         1 L5P       0.100100
     16 O14         -2.4430     0.7160    -0.5740 oh         1 L5P      -0.604800
     17 C7          -4.4950    -0.1930     0.3880 c3         1 L5P       0.204400
     18 O8          -5.3030     0.6200    -0.4040 os         1 L5P      -0.549200
     19 P9          -6.9570     0.7150     0.0200 p5         1 L5P       1.274900
     20 O12         -7.4800    -0.7090    -0.1360 o          1 L5P      -0.927167
     21 O11         -6.9610     1.2270     1.4570 o          1 L5P      -0.927167
     22 O10         -7.4570     1.7050    -1.0220 o          1 L5P      -0.927167
     23 H1           8.0600     2.6040     1.0320 hn         1 L5P       0.320800
     24 H2           7.4830     2.5290    -0.4570 hn         1 L5P       0.320800
     25 H4           7.5280     0.4060     1.5140 h1         1 L5P       0.034700
     26 H5           6.2530     0.4010    -1.2470 hc         1 L5P       0.037200
     27 H6           6.5210    -1.0170    -0.2550 hc         1 L5P       0.037200
     28 H7           5.0700    -0.0730     1.5270 hc         1 L5P       0.033700
     29 H8           4.7970     1.3620     0.5640 hc         1 L5P       0.033700
     30 H9           3.7270    -0.0150    -1.2190 hc         1 L5P       0.038700
     31 H10          4.0490    -1.4780    -0.3060 hc         1 L5P       0.038700
     32 H11          2.6070    -0.6860     1.5380 h1         1 L5P       0.020200
     33 H12          2.3050     0.8220     0.6920 h1         1 L5P       0.020200
     34 H13          1.3450    -0.5420    -1.0870 hn         1 L5P       0.365800
     35 OXT          9.1280    -0.9450     0.0150 o          1 L5P      -0.848300
     36 H16          0.2710    -1.3180     1.5190 h1         1 L5P       0.047200
     37 H17         -0.1600     0.1820     0.7480 h1         1 L5P       0.047200
     38 H18         -2.2200    -1.1370     1.5000 h1         1 L5P       0.069700
     39 H19         -2.9920    -3.0730    -0.3950 ho         1 L5P       0.412000
     40 H20         -3.3880    -0.8980    -1.3060 h1         1 L5P       0.077700
     41 H21         -2.4410     1.2590     0.2230 ho         1 L5P       0.394000
     42 H22         -4.9720    -1.1570     0.6080 h1         1 L5P       0.003700
     43 H23         -4.2750     0.2710     1.3650 h1         1 L5P       0.003700
@<TRIPOS>BOND
     1     1     2 1   
     2     1    23 1   
     3     1    24 1   
     4     2     3 1   
     5     2     8 1   
     6     2    25 1   
     7     3     4 1   
     8     3    26 1   
     9     3    27 1   
    10     4     5 1   
    11     4    28 1   
    12     4    29 1   
    13     5     6 1   
    14     5    30 1   
    15     5    31 1   
    16     6     7 1   
    17     6    32 1   
    18     6    33 1   
    19     7    12 1   
    20     7    34 1   
    21     8     9 1   
    22     8    35 1   
    23    10    11 2   
    24    11    12 1   
    25    11    13 1   
    26    12    36 1   
    27    12    37 1   
    28    13    14 1   
    29    13    15 1   
    30    13    38 1   
    31    14    39 1   
    32    15    16 1   
    33    15    17 1   
    34    15    40 1   
    35    16    41 1   
    36    17    18 1   
    37    17    42 1   
    38    17    43 1   
    39    18    19 1   
    40    19    20 1   
    41    19    21 1   
    42    19    22 1   
@<TRIPOS>SUBSTRUCTURE
     1 L5P         1 TEMP              0 ****  ****    0 ROOT
