@<TRIPOS>MOLECULE
L5Q
   21    21     1     0     0
SMALL
bcc


@<TRIPOS>ATOM
      1 C4           8.1170    39.5320    -3.9680 c          1 L5Q       0.600600
      2 C5          10.1820    38.5150    -3.1590 c3         1 L5Q       0.036000
      3 C6          10.1770    38.3760    -1.6510 c3         1 L5Q       0.638900
      4 N1           9.4050    39.6400    -3.5910 ns         1 L5Q      -0.570900
      5 N            6.2000    40.8820    -4.4760 nc         1 L5Q      -0.287300
      6 O            5.9150    42.1280    -4.9120 os         1 L5Q      -0.107100
      7 C1           7.0420    42.8190    -5.1260 cc         1 L5Q       0.300000
      8 C2           8.1000    42.0280    -4.8220 cd         1 L5Q      -0.391600
      9 C3           7.4990    40.8120    -4.4170 cd         1 L5Q       0.270800
     10 F            8.9410    38.2570    -1.1540 f          1 L5Q      -0.233633
     11 F1          10.7330    39.4370    -1.0510 f          1 L5Q      -0.233633
     12 F2          10.8690    37.2950    -1.2690 f          1 L5Q      -0.233633
     13 O1           7.4880    38.4920    -3.9660 o          1 L5Q      -0.540100
     14 H1           9.7930    37.5980    -3.6000 h1         1 L5Q       0.093700
     15 H2          11.2130    38.6350    -3.4940 h1         1 L5Q       0.093700
     16 H3           9.8500    40.5440    -3.5830 hn         1 L5Q       0.331500
     17 H4           6.4330    44.8450    -4.8780 hc         1 L5Q       0.066700
     18 H5           7.9100    44.6150    -5.8170 hc         1 L5Q       0.066700
     19 H6           6.3380    44.2530    -6.5360 hc         1 L5Q       0.066700
     20 H7           9.1430    42.2810    -4.9020 ha         1 L5Q       0.170000
     21 C            6.9220    44.2080    -5.6170 c3         1 L5Q      -0.138400
@<TRIPOS>BOND
     1     1     4 1   
     2     1     9 1   
     3     1    13 2   
     4     2     3 1   
     5     2     4 1   
     6     2    14 1   
     7     2    15 1   
     8     3    10 1   
     9     3    11 1   
    10     3    12 1   
    11     4    16 1   
    12     5     6 1   
    13     5     9 2   
    14     6     7 1   
    15     7     8 2   
    16     7    21 1   
    17     8     9 1   
    18     8    20 1   
    19    17    21 1   
    20    18    21 1   
    21    19    21 1   
@<TRIPOS>SUBSTRUCTURE
     1 L5Q         1 TEMP              0 ****  ****    0 ROOT
