@<TRIPOS>MOLECULE
L5Q
   21    21     1     0     0
SMALL
No Charge or Current Charge


@<TRIPOS>ATOM
      1 C4           7.9790    39.4670    -3.9390 c          1 L5Q       0.533600
      2 C5          10.2010    38.4970    -3.1840 c3         1 L5Q       0.036000
      3 C6          10.2710    38.4560    -1.6380 c3         1 L5Q       0.275000
      4 N1           9.3440    39.5760    -3.7220 ns         1 L5Q      -0.503900
      5 N            6.0280    40.7960    -4.7030 nc         1 L5Q      -0.287300
      6 O            5.8020    42.1490    -5.1540 os         1 L5Q      -0.062700
      7 C1           6.9970    42.8190    -5.1340 cc         1 L5Q       0.190300
      8 C2           7.9630    41.9710    -4.6990 cd         1 L5Q      -0.243000
      9 C3           7.3290    40.7300    -4.4420 cd         1 L5Q       0.205500
     10 F            9.0560    38.2190    -1.0930 f          1 L5Q      -0.112333
     11 F1          10.7300    39.6290    -1.1430 f          1 L5Q      -0.112333
     12 F2          11.1080    37.4760    -1.2260 f          1 L5Q      -0.112333
     13 O1           7.3810    38.4170    -3.7330 o          1 L5Q      -0.540100
     14 H1           9.8360    37.5270    -3.5480 h1         1 L5Q       0.093700
     15 H2          11.2180    38.6290    -3.5770 h1         1 L5Q       0.093700
     16 H3           9.7690    40.4760    -3.9170 hn         1 L5Q       0.331500
     17 H4           6.4070    44.8720    -4.9210 hc         1 L5Q       0.066700
     18 H5           8.0730    44.6470    -5.4870 hc         1 L5Q       0.066700
     19 H6           6.7150    44.3670    -6.5950 hc         1 L5Q       0.066700
     20 H7           9.0120    42.2170    -4.5780 ha         1 L5Q       0.152000
     21 C            7.0510    44.2560    -5.5580 c3         1 L5Q      -0.138400
@<TRIPOS>BOND
     1     1     4 1   
     2     1     9 1   
     3     1    13 2   
     4     2     3 1   
     5     2     4 1   
     6     2    14 1   
     7     2    15 1   
     8     3    10 1   
     9     3    11 1   
    10     3    12 1   
    11     4    16 1   
    12     5     6 1   
    13     5     9 2   
    14     6     7 1   
    15     7     8 2   
    16     7    21 1   
    17     8     9 1   
    18     8    20 1   
    19    17    21 1   
    20    18    21 1   
    21    19    21 1   
@<TRIPOS>SUBSTRUCTURE
     1 L5Q         1 TEMP              0 ****  ****    0 ROOT
