@<TRIPOS>MOLECULE
L5S
   32    35     1     0     0
SMALL
abcg2


@<TRIPOS>ATOM
      1 CAS         -0.1400    -0.6880     0.6490 cc         1 L5S      -0.214900
      2 CAJ         -0.6200    -1.9670     1.0610 cc         1 L5S      -0.090000
      3 CAP          0.3430    -2.9210     1.0560 cd         1 L5S      -0.248000
      4 CAU          1.1950    -0.7390     0.3390 cd         1 L5S      -0.117200
      5 NAV          1.9610     0.3490    -0.0540 na         1 L5S      -0.258800
      6 CAR          2.9760     0.4630    -0.9660 cc         1 L5S       0.407800
      7 CAA          3.5270    -0.6510    -1.7710 c3         1 L5S      -0.128400
      8 NAM          3.3640     1.7030    -1.0050 nd         1 L5S      -0.350000
      9 NAN          2.6130     2.4240    -0.1300 nd         1 L5S      -0.333000
     10 CAT          1.7800     1.6120     0.4390 cc         1 L5S       0.383800
     11 CAK          0.7220     1.8920     1.4410 c3         1 L5S       0.078500
     12 NAL         -0.5950     1.7010     0.8640 n2         1 L5S      -0.569900
     13 CAO         -0.9700     0.5270     0.5410 ce         1 L5S       0.551500
     14 CAQ         -2.3440     0.3620     0.0090 ca         1 L5S      -0.142900
     15 CAF         -3.3650     1.2040     0.4510 ca         1 L5S      -0.075500
     16 CAD         -4.6460     1.0800    -0.0610 ca         1 L5S      -0.119000
     17 CAC         -4.9210     0.1240    -1.0320 ca         1 L5S      -0.093000
     18 CAE         -3.9090    -0.7120    -1.4830 ca         1 L5S      -0.119000
     19 CAG         -2.6280    -0.5980    -0.9610 ca         1 L5S      -0.075500
     20 S            1.8630    -2.3050     0.5550 ss         1 L5S       0.253000
     21 HAJ         -1.6420    -2.1580     1.3530 ha         1 L5S       0.151000
     22 HAP          0.2480    -3.9650     1.3120 h4         1 L5S       0.160000
     23 HAA1         2.7410    -1.2090    -2.2800 hc         1 L5S       0.064033
     24 HAA2         4.1990    -0.2430    -2.5230 hc         1 L5S       0.064033
     25 HAA3         4.0960    -1.3510    -1.1580 hc         1 L5S       0.064033
     26 HAK1         0.8710     1.2480     2.3180 h1         1 L5S       0.082200
     27 HAK2         0.8210     2.9250     1.7700 h1         1 L5S       0.082200
     28 HAF         -3.1540     1.9480     1.2070 ha         1 L5S       0.123000
     29 HAG         -1.8460    -1.2510    -1.3270 ha         1 L5S       0.123000
     30 HAD         -5.4330     1.7310     0.2980 ha         1 L5S       0.116000
     31 HAC         -5.9220     0.0300    -1.4340 ha         1 L5S       0.114000
     32 HAE         -4.1120    -1.4540    -2.2430 ha         1 L5S       0.116000
@<TRIPOS>BOND
     1     1     2 1   
     2     1     4 2   
     3     1    13 1   
     4     2     3 2   
     5     2    21 1   
     6     3    20 1   
     7     3    22 1   
     8     4     5 1   
     9     4    20 1   
    10     5     6 1   
    11     5    10 1   
    12     6     7 1   
    13     6     8 2   
    14     7    23 1   
    15     7    24 1   
    16     7    25 1   
    17     8     9 1   
    18     9    10 2   
    19    10    11 1   
    20    11    12 1   
    21    11    26 1   
    22    11    27 1   
    23    12    13 2   
    24    13    14 1   
    25    14    15 ar  
    26    14    19 ar  
    27    15    16 ar  
    28    15    28 1   
    29    16    17 ar  
    30    16    30 1   
    31    17    18 ar  
    32    17    31 1   
    33    18    19 ar  
    34    18    32 1   
    35    19    29 1   
@<TRIPOS>SUBSTRUCTURE
     1 L5S         1 TEMP              0 ****  ****    0 ROOT
