@<TRIPOS>MOLECULE
L5S
   32    35     1     0     0
SMALL
No Charge or Current Charge


@<TRIPOS>ATOM
      1 CAS         -0.1210    -0.7880     0.8180 cc         1 L5S      -0.214900
      2 CAJ         -0.4540    -2.0820     1.3210 cc         1 L5S      -0.090000
      3 CAP          0.5090    -3.0510     1.1450 cd         1 L5S      -0.248000
      4 CAU          1.1450    -0.8410     0.2810 cd         1 L5S      -0.117200
      5 NAV          1.7820     0.3460    -0.1000 na         1 L5S      -0.258800
      6 CAR          2.7730     0.5120    -1.0430 cc         1 L5S       0.407800
      7 CAA          3.2940    -0.5240    -1.9990 c3         1 L5S      -0.128400
      8 NAM          3.1380     1.7860    -1.0400 nd         1 L5S      -0.350000
      9 NAN          2.4200     2.4410    -0.0600 nd         1 L5S      -0.333000
     10 CAT          1.5990     1.5660     0.5030 cc         1 L5S       0.383800
     11 CAK          0.7310     1.8140     1.7220 c3         1 L5S       0.078500
     12 NAL         -0.6880     1.4590     1.5030 n2         1 L5S      -0.569900
     13 CAO         -1.0400     0.3610     0.9010 ce         1 L5S       0.551500
     14 CAQ         -2.3380     0.3150     0.1350 ca         1 L5S      -0.142900
     15 CAF         -3.2780     1.3700     0.2390 ca         1 L5S      -0.075500
     16 CAD         -4.4800     1.3390    -0.4890 ca         1 L5S      -0.119000
     17 CAC         -4.7620     0.2610    -1.3410 ca         1 L5S      -0.093000
     18 CAE         -3.8360    -0.7850    -1.4680 ca         1 L5S      -0.119000
     19 CAG         -2.6330    -0.7580    -0.7410 ca         1 L5S      -0.075500
     20 S            1.9460    -2.4170     0.3250 ss         1 L5S       0.253000
     21 HAJ         -1.4100    -2.2770     1.8000 ha         1 L5S       0.151000
     22 HAP          0.4700    -4.0930     1.4390 h4         1 L5S       0.160000
     23 HAA1         2.4780    -1.1400    -2.3930 hc         1 L5S       0.064033
     24 HAA2         3.7960    -0.0510    -2.8510 hc         1 L5S       0.064033
     25 HAA3         4.0200    -1.1790    -1.5040 hc         1 L5S       0.064033
     26 HAK1         1.1480     1.2340     2.5550 h1         1 L5S       0.082200
     27 HAK2         0.8190     2.8730     1.9960 h1         1 L5S       0.082200
     28 HAF         -3.0870     2.2200     0.8910 ha         1 L5S       0.123000
     29 HAG         -1.9310    -1.5770    -0.8780 ha         1 L5S       0.123000
     30 HAD         -5.1940     2.1550    -0.3920 ha         1 L5S       0.116000
     31 HAC         -5.6930     0.2390    -1.9040 ha         1 L5S       0.114000
     32 HAE         -4.0480    -1.6180    -2.1350 ha         1 L5S       0.116000
@<TRIPOS>BOND
     1     1     2 1   
     2     1     4 2   
     3     1    13 1   
     4     2     3 2   
     5     2    21 1   
     6     3    20 1   
     7     3    22 1   
     8     4     5 1   
     9     4    20 1   
    10     5     6 1   
    11     5    10 1   
    12     6     7 1   
    13     6     8 2   
    14     7    23 1   
    15     7    24 1   
    16     7    25 1   
    17     8     9 1   
    18     9    10 2   
    19    10    11 1   
    20    11    12 1   
    21    11    26 1   
    22    11    27 1   
    23    12    13 2   
    24    13    14 1   
    25    14    15 ar  
    26    14    19 ar  
    27    15    16 ar  
    28    15    28 1   
    29    16    17 ar  
    30    16    30 1   
    31    17    18 ar  
    32    17    31 1   
    33    18    19 ar  
    34    18    32 1   
    35    19    29 1   
@<TRIPOS>SUBSTRUCTURE
     1 L5S         1 TEMP              0 ****  ****    0 ROOT
