@<TRIPOS>MOLECULE
L5T
  105   110     1     0     0
SMALL
abcg2


@<TRIPOS>ATOM
      1 C25         -3.7770     2.8240    -0.5540 c          1 L5T       0.641100
      2 O26         -2.8630     3.5510    -0.2200 o          1 L5T      -0.560000
      3 O27         -4.9930     3.2520    -0.8990 os         1 L5T      -0.461100
      4 C28         -5.2840     4.6530    -0.7520 c5         1 L5T       0.194300
      5 C29         -5.5910     4.9880     0.7010 c5         1 L5T      -0.094900
      6 C30         -6.9920     4.4070     0.9400 c5         1 L5T      -0.075400
      7 C31         -7.6700     4.3640    -0.4500 c5         1 L5T      -0.075400
      8 C32         -6.6180     4.8880    -1.4400 c5         1 L5T      -0.094900
      9 N24         -3.7100     1.4800    -0.6360 ns         1 L5T      -0.492900
     10 C19         -2.5050     0.7360    -0.3680 c3         1 L5T       0.061700
     11 C20         -2.5890    -0.0740     0.9630 c3         1 L5T      -0.046000
     12 C21         -3.6560    -1.1680     0.9120 c3         1 L5T      -0.092433
     13 C22         -1.2310    -0.7080     1.2690 c3         1 L5T      -0.092433
     14 C23         -2.9290     0.8980     2.0950 c3         1 L5T      -0.092433
     15 C17         -2.2540    -0.1590    -1.5820 c          1 L5T       0.601100
     16 O18         -3.1840    -0.7710    -2.0900 o          1 L5T      -0.607100
     17 C10         -1.0540    -2.6390    -2.6820 c          1 L5T       0.612100
     18 O11         -0.7810    -2.9960    -1.5490 o          1 L5T      -0.604100
     19 C12         -0.7630    -1.2170    -3.1520 c5         1 L5T       0.018700
     20 C13          0.7390    -1.0680    -3.4340 c5         1 L5T      -0.084400
     21 C14          1.2890    -0.5100    -2.1310 c5         1 L5T       0.153300
     22 C15          0.1850     0.4500    -1.6840 c5         1 L5T       0.073000
     23 N16         -1.0120    -0.2630    -2.0830 n          1 L5T      -0.391800
     24 O33          2.5310     0.1210    -2.3820 os         1 L5T      -0.333100
     25 C34          3.2650     0.5730    -1.3640 ca         1 L5T       0.212100
     26 C35          2.9130     0.4900    -0.0410 ca         1 L5T      -0.262000
     27 C36          3.7690     1.0620     0.9240 ca         1 L5T       0.388000
     28 N37          4.9110     1.6360     0.6460 nb         1 L5T      -0.710000
     29 C38          5.2950     1.6960    -0.6510 ca         1 L5T       0.336000
     30 C39          4.5000     1.1860    -1.7100 ca         1 L5T      -0.137000
     31 C40          4.9670     1.3070    -3.0310 ca         1 L5T      -0.021000
     32 C41          6.1720     1.8990    -3.3050 ca         1 L5T      -0.206000
     33 C42          6.9670     2.4060    -2.2520 ca         1 L5T       0.151100
     34 C43          6.5280     2.3020    -0.9510 ca         1 L5T      -0.153000
     35 O45          8.1550     3.0020    -2.4450 os         1 L5T      -0.346100
     36 C46          8.6680     3.1120    -3.7600 c3         1 L5T       0.152900
     37 C47          3.3440     1.0520     2.3310 cc         1 L5T       0.247000
     38 C48          4.0450     1.5720     3.3740 cd         1 L5T      -0.261000
     39 S49          3.1550     1.4050     4.8330 ss         1 L5T       0.043600
     40 C50          1.8950     0.6400     3.9230 cd         1 L5T       0.538300
     41 N51          2.1260     0.5220     2.6590 nc         1 L5T      -0.698000
     42 N52          0.7280     0.1880     4.4850 ns         1 L5T      -0.470400
     43 C53          0.3870     0.3390     5.7960 c          1 L5T       0.606100
     44 O54          1.1520     0.8670     6.5800 o          1 L5T      -0.579100
     45 C55         -1.0000    -0.1390     6.1550 c3         1 L5T      -0.131700
     46 C56         -1.0280    -0.7490     7.5500 c3         1 L5T      -0.085100
     47 C57         -1.9670     1.0460     6.0450 c3         1 L5T      -0.085100
     48 C4          -1.5720    -4.8590    -3.4870 cx         1 L5T      -0.056600
     49 C6          -2.5610    -5.3850    -2.4590 cx         1 L5T      -0.081500
     50 C5          -2.8270    -5.5510    -3.9230 cx         1 L5T      -0.125400
     51 C7          -2.2760    -6.5290    -1.5790 c2         1 L5T      -0.125200
     52 C8          -2.5980    -6.5550    -0.2880 c2         1 L5T      -0.377000
     53 C2          -0.2190    -5.5390    -3.7150 c          1 L5T       0.745000
     54 O1          -0.2170    -6.7850    -3.7550 o          1 L5T      -0.720000
     55 O3           0.7590    -4.7850    -3.8570 o          1 L5T      -0.720000
     56 H26         -4.4720     5.2450    -1.1760 h1         1 L5T       0.072700
     57 H27         -4.8400     4.6220     1.4020 hc         1 L5T       0.054950
     58 H28         -5.6070     6.0770     0.7940 hc         1 L5T       0.054950
     59 H29         -6.9210     3.4030     1.3600 hc         1 L5T       0.042700
     60 H30         -7.5540     5.0080     1.6540 hc         1 L5T       0.042700
     61 H31         -7.9640     3.3450    -0.7040 hc         1 L5T       0.042700
     62 H32         -8.5760     4.9700    -0.4830 hc         1 L5T       0.042700
     63 H33         -6.7310     5.9650    -1.5830 hc         1 L5T       0.054950
     64 H34         -6.6740     4.4280    -2.4280 hc         1 L5T       0.054950
     65 H25         -4.5160     0.9750    -0.9700 hn         1 L5T       0.344500
     66 H15         -1.7060     1.4680    -0.2490 h1         1 L5T       0.087700
     67 H16         -3.4000    -1.9650     0.2160 hc         1 L5T       0.040700
     68 H17         -3.7590    -1.6150     1.9030 hc         1 L5T       0.040700
     69 H18         -4.6350    -0.7750     0.6340 hc         1 L5T       0.040700
     70 H19         -0.4570     0.0500     1.4130 hc         1 L5T       0.040700
     71 H20         -1.2940    -1.2890     2.1930 hc         1 L5T       0.040700
     72 H21         -0.9020    -1.3940     0.4880 hc         1 L5T       0.040700
     73 H22         -3.9140     1.3490     1.9700 hc         1 L5T       0.040700
     74 H23         -2.9450     0.3610     3.0460 hc         1 L5T       0.040700
     75 H24         -2.1940     1.7020     2.1760 hc         1 L5T       0.040700
     76 H9          -1.3510    -0.9720    -4.0400 h1         1 L5T       0.068700
     77 H10          1.1970    -2.0120    -3.7280 hc         1 L5T       0.086200
     78 H11          0.8950    -0.3410    -4.2330 hc         1 L5T       0.086200
     79 H12          1.4170    -1.3070    -1.3920 h1         1 L5T       0.098700
     80 H13          0.1990     0.6560    -0.6180 h1         1 L5T       0.057700
     81 H14          0.2810     1.4030    -2.2160 h1         1 L5T       0.057700
     82 H35          2.0010     0.0210     0.2970 ha         1 L5T       0.156000
     83 H36          4.3740     0.9280    -3.8520 ha         1 L5T       0.131000
     84 H37          6.4940     1.9720    -4.3350 ha         1 L5T       0.115000
     85 H38          7.1290     2.6880    -0.1370 ha         1 L5T       0.138000
     86 H39          8.8310     2.1340    -4.2180 h1         1 L5T       0.038033
     87 H40          8.0160     3.7030    -4.4070 h1         1 L5T       0.038033
     88 H41          9.6250     3.6200    -3.6710 h1         1 L5T       0.038033
     89 H42          5.0120     2.0470     3.3560 h4         1 L5T       0.174000
     90 H43          0.1020    -0.2920     3.8530 hn         1 L5T       0.346500
     91 H44         -1.3080    -0.9010     5.4320 hc         1 L5T       0.063700
     92 H45         -0.7680    -0.0120     8.3090 hc         1 L5T       0.045033
     93 H46         -2.0310    -1.1150     7.7690 hc         1 L5T       0.045033
     94 H47         -0.3400    -1.5900     7.6380 hc         1 L5T       0.045033
     95 H48         -1.7100     1.8250     6.7630 hc         1 L5T       0.045033
     96 H49         -1.9640     1.4880     5.0480 hc         1 L5T       0.045033
     97 H50         -2.9820     0.7120     6.2580 hc         1 L5T       0.045033
     98 H8          -1.6790    -3.0670    -4.5550 hn         1 L5T       0.298500
     99 H4          -3.1210    -4.5940    -1.9720 hc         1 L5T       0.066700
    100 H2          -3.6140    -4.9530    -4.3660 hc         1 L5T       0.066200
    101 H3          -2.7110    -6.5390    -4.3480 hc         1 L5T       0.066200
    102 H5          -1.7860    -7.3840    -2.0280 ha         1 L5T       0.200000
    103 H6          -3.0820    -5.7160     0.1990 ha         1 L5T       0.142500
    104 H7          -2.3850    -7.4180     0.3300 ha         1 L5T       0.142500
    105 N9          -1.5690    -3.4410    -3.6250 ns         1 L5T      -0.429900
@<TRIPOS>BOND
     1     1     2 2   
     2     1     3 1   
     3     1     9 1   
     4     3     4 1   
     5     4     5 1   
     6     4     8 1   
     7     4    56 1   
     8     5     6 1   
     9     5    57 1   
    10     5    58 1   
    11     6     7 1   
    12     6    59 1   
    13     6    60 1   
    14     7     8 1   
    15     7    61 1   
    16     7    62 1   
    17     8    63 1   
    18     8    64 1   
    19     9    10 1   
    20     9    65 1   
    21    10    11 1   
    22    10    15 1   
    23    10    66 1   
    24    11    12 1   
    25    11    13 1   
    26    11    14 1   
    27    12    67 1   
    28    12    68 1   
    29    12    69 1   
    30    13    70 1   
    31    13    71 1   
    32    13    72 1   
    33    14    73 1   
    34    14    74 1   
    35    14    75 1   
    36    15    16 2   
    37    15    23 1   
    38    17    18 2   
    39    17    19 1   
    40    17   105 1   
    41    19    20 1   
    42    19    23 1   
    43    19    76 1   
    44    20    21 1   
    45    20    77 1   
    46    20    78 1   
    47    21    22 1   
    48    21    24 1   
    49    21    79 1   
    50    22    23 1   
    51    22    80 1   
    52    22    81 1   
    53    24    25 1   
    54    25    26 ar  
    55    25    30 ar  
    56    26    27 ar  
    57    26    82 1   
    58    27    28 ar  
    59    27    37 1   
    60    28    29 ar  
    61    29    30 ar  
    62    29    34 ar  
    63    30    31 ar  
    64    31    32 ar  
    65    31    83 1   
    66    32    33 ar  
    67    32    84 1   
    68    33    34 ar  
    69    33    35 1   
    70    34    85 1   
    71    35    36 1   
    72    36    86 1   
    73    36    87 1   
    74    36    88 1   
    75    37    38 2   
    76    37    41 1   
    77    38    39 1   
    78    38    89 1   
    79    39    40 1   
    80    40    41 2   
    81    40    42 1   
    82    42    43 1   
    83    42    90 1   
    84    43    44 2   
    85    43    45 1   
    86    45    46 1   
    87    45    47 1   
    88    45    91 1   
    89    46    92 1   
    90    46    93 1   
    91    46    94 1   
    92    47    95 1   
    93    47    96 1   
    94    47    97 1   
    95    48    49 1   
    96    48    50 1   
    97    48    53 1   
    98    48   105 1   
    99    49    50 1   
   100    49    51 1   
   101    49    99 1   
   102    50   100 1   
   103    50   101 1   
   104    51    52 2   
   105    51   102 1   
   106    52   103 1   
   107    52   104 1   
   108    53    54 1   
   109    53    55 1   
   110    98   105 1   
@<TRIPOS>SUBSTRUCTURE
     1 L5T         1 TEMP              0 ****  ****    0 ROOT
