@<TRIPOS>MOLECULE
L5T
  105   110     1     0     0
SMALL
No Charge or Current Charge


@<TRIPOS>ATOM
      1 C25         -3.5410     3.3840    -1.0700 c          1 L5T       0.641100
      2 O26         -2.5970     4.0960    -0.7620 o          1 L5T      -0.560000
      3 O27         -4.7810     3.7970    -1.4630 os         1 L5T      -0.461100
      4 C28         -5.0060     5.2300    -1.3650 c5         1 L5T       0.194300
      5 C29         -5.2650     5.6290     0.1150 c5         1 L5T      -0.094900
      6 C30         -6.6130     4.9190     0.4260 c5         1 L5T      -0.075400
      7 C31         -7.4050     4.9730    -0.9210 c5         1 L5T      -0.075400
      8 C32         -6.3970     5.5310    -1.9760 c5         1 L5T      -0.094900
      9 N24         -3.5140     2.0220    -1.1060 ns         1 L5T      -0.492900
     10 C19         -2.3620     1.1740    -0.7180 c3         1 L5T       0.061700
     11 C20         -2.5040     0.6420     0.7660 c3         1 L5T      -0.046000
     12 C21         -3.7010    -0.3430     0.8860 c3         1 L5T      -0.092433
     13 C22         -1.2190    -0.0920     1.2380 c3         1 L5T      -0.092433
     14 C23         -2.7440     1.8250     1.7490 c3         1 L5T      -0.092433
     15 C17         -2.1990     0.0430    -1.7950 c          1 L5T       0.601100
     16 O18         -3.1760    -0.4130    -2.3840 o          1 L5T      -0.607100
     17 C10         -1.0760    -3.0380    -2.2650 c          1 L5T       0.612100
     18 O11         -1.1800    -3.2500    -1.0630 o          1 L5T      -0.604100
     19 C12         -0.7330    -1.6780    -2.9540 c5         1 L5T       0.018700
     20 C13          0.8010    -1.6210    -3.2570 c5         1 L5T      -0.084400
     21 C14          1.3650    -0.9430    -1.9850 c5         1 L5T       0.153300
     22 C15          0.3520     0.2230    -1.8160 c5         1 L5T       0.073000
     23 N16         -0.9180    -0.4920    -2.0630 n          1 L5T      -0.391800
     24 O33          2.6830    -0.4230    -2.3170 os         1 L5T      -0.333100
     25 C34          3.2670     0.3300    -1.2980 ca         1 L5T       0.212100
     26 C35          2.9100     0.2290     0.0620 ca         1 L5T      -0.262000
     27 C36          3.5340     1.0470     1.0210 ca         1 L5T       0.388000
     28 N37          4.5120     1.9190     0.6630 nb         1 L5T      -0.710000
     29 C38          4.8920     2.0090    -0.6280 ca         1 L5T       0.336000
     30 C39          4.2930     1.2310    -1.6430 ca         1 L5T      -0.137000
     31 C40          4.7210     1.3710    -2.9820 ca         1 L5T      -0.021000
     32 C41          5.7420     2.2780    -3.3070 ca         1 L5T      -0.206000
     33 C42          6.3410     3.0530    -2.2960 ca         1 L5T       0.151100
     34 C43          5.9100     2.9120    -0.9710 ca         1 L5T      -0.153000
     35 O45          7.3480     3.9610    -2.5540 os         1 L5T      -0.346100
     36 C46          7.8610     4.1820    -3.8800 c3         1 L5T       0.152900
     37 C47          3.0990     0.9800     2.4490 cc         1 L5T       0.247000
     38 C48          3.6930     1.7910     3.3900 cd         1 L5T      -0.261000
     39 S49          2.9590     1.5380     4.9620 ss         1 L5T       0.043600
     40 C50          1.8950     0.3480     4.1940 cd         1 L5T       0.538300
     41 N51          2.0860     0.1600     2.9030 nc         1 L5T      -0.698000
     42 N52          0.9080    -0.3600     4.8160 ns         1 L5T      -0.470400
     43 C53          0.4900    -0.3030     6.1210 c          1 L5T       0.606100
     44 O54          0.9940     0.4330     6.9550 o          1 L5T      -0.579100
     45 C55         -0.6850    -1.2460     6.4600 c3         1 L5T      -0.131700
     46 C56         -0.2780    -2.2890     7.5290 c3         1 L5T      -0.085100
     47 C57         -1.9410    -0.4450     6.8830 c3         1 L5T      -0.085100
     48 C4          -1.5650    -5.4020    -2.9920 cx         1 L5T      -0.056600
     49 C6          -2.8670    -5.7260    -2.2720 cx         1 L5T      -0.081500
     50 C5          -2.7600    -5.9450    -3.7590 cx         1 L5T      -0.125400
     51 C7          -2.9850    -6.9020    -1.3660 c2         1 L5T      -0.125200
     52 C8          -2.5870    -6.9090    -0.0850 c2         1 L5T      -0.377000
     53 C2          -0.3540    -6.3400    -2.7890 c          1 L5T       0.745000
     54 O1          -0.0730    -7.1280    -3.6830 o          1 L5T      -0.720000
     55 O3           0.3530    -6.1780    -1.8030 o          1 L5T      -0.720000
     56 H26         -4.1950     5.7900    -1.8520 h1         1 L5T       0.072700
     57 H27         -4.4640     5.3180     0.7950 hc         1 L5T       0.054950
     58 H28         -5.3590     6.7170     0.2140 hc         1 L5T       0.054950
     59 H29         -6.4450     3.8800     0.7360 hc         1 L5T       0.042700
     60 H30         -7.1530     5.4080     1.2450 hc         1 L5T       0.042700
     61 H31         -7.7580     3.9730    -1.2000 hc         1 L5T       0.042700
     62 H32         -8.2940     5.6100    -0.8460 hc         1 L5T       0.042700
     63 H33         -6.5310     6.6110    -2.1100 hc         1 L5T       0.054950
     64 H34         -6.5280     5.0710    -2.9620 hc         1 L5T       0.054950
     65 H25         -4.3620     1.5720    -1.4270 hn         1 L5T       0.344500
     66 H15         -1.4640     1.8010    -0.7720 h1         1 L5T       0.087700
     67 H16         -3.5430    -1.2400     0.2750 hc         1 L5T       0.040700
     68 H17         -3.8330    -0.6720     1.9250 hc         1 L5T       0.040700
     69 H18         -4.6390     0.1270     0.5670 hc         1 L5T       0.040700
     70 H19         -0.3570     0.5850     1.2350 hc         1 L5T       0.040700
     71 H20         -1.3380    -0.4630     2.2630 hc         1 L5T       0.040700
     72 H21         -0.9900    -0.9560     0.6060 hc         1 L5T       0.040700
     73 H22         -3.7040     2.3200     1.5620 hc         1 L5T       0.040700
     74 H23         -2.7570     1.4750     2.7890 hc         1 L5T       0.040700
     75 H24         -1.9490     2.5750     1.6590 hc         1 L5T       0.040700
     76 H9          -1.3260    -1.5880    -3.8740 h1         1 L5T       0.068700
     77 H10          1.2450    -2.6070    -3.4390 hc         1 L5T       0.086200
     78 H11          0.9980    -1.0120    -4.1470 hc         1 L5T       0.086200
     79 H12          1.3930    -1.6450    -1.1400 h1         1 L5T       0.098700
     80 H13          0.4070     0.6730    -0.8210 h1         1 L5T       0.057700
     81 H14          0.5080     1.0130    -2.5640 h1         1 L5T       0.057700
     82 H35          2.1560    -0.4650     0.4100 ha         1 L5T       0.156000
     83 H36          4.2700     0.7820    -3.7770 ha         1 L5T       0.131000
     84 H37          6.0510     2.3630    -4.3450 ha         1 L5T       0.115000
     85 H38          6.3730     3.5120    -0.1940 ha         1 L5T       0.138000
     86 H39          8.2870     3.2580    -4.2920 h1         1 L5T       0.038033
     87 H40          7.0690     4.5360    -4.5510 h1         1 L5T       0.038033
     88 H41          8.6530     4.9410    -3.8590 h1         1 L5T       0.038033
     89 H42          4.4900     2.5110     3.2550 h4         1 L5T       0.174000
     90 H43          0.4000    -1.0110     4.2370 hn         1 L5T       0.346500
     91 H44         -0.9510    -1.8020     5.5520 hc         1 L5T       0.063700
     92 H45         -0.0180    -1.8010     8.4760 hc         1 L5T       0.045033
     93 H46         -1.0990    -2.9910     7.7190 hc         1 L5T       0.045033
     94 H47          0.5920    -2.8680     7.1920 hc         1 L5T       0.045033
     95 H48         -1.7520     0.1250     7.8010 hc         1 L5T       0.045033
     96 H49         -2.2320     0.2600     6.0950 hc         1 L5T       0.045033
     97 H50         -2.7870    -1.1190     7.0650 hc         1 L5T       0.045033
     98 H8          -1.1620    -3.6900    -4.2020 hn         1 L5T       0.298500
     99 H4          -3.4760    -4.8810    -1.9570 hc         1 L5T       0.066700
    100 H2          -3.3080    -5.2640    -4.4060 hc         1 L5T       0.066200
    101 H3          -2.7190    -6.9700    -4.1190 hc         1 L5T       0.066200
    102 H5          -3.4410    -7.7950    -1.8060 ha         1 L5T       0.200000
    103 H6          -2.1320    -6.0290     0.3720 ha         1 L5T       0.142500
    104 H7          -2.6980    -7.7930     0.5430 ha         1 L5T       0.142500
    105 N9          -1.2760    -3.9980    -3.2430 ns         1 L5T      -0.429900
@<TRIPOS>BOND
     1     1     2 2   
     2     1     3 1   
     3     1     9 1   
     4     3     4 1   
     5     4     5 1   
     6     4     8 1   
     7     4    56 1   
     8     5     6 1   
     9     5    57 1   
    10     5    58 1   
    11     6     7 1   
    12     6    59 1   
    13     6    60 1   
    14     7     8 1   
    15     7    61 1   
    16     7    62 1   
    17     8    63 1   
    18     8    64 1   
    19     9    10 1   
    20     9    65 1   
    21    10    11 1   
    22    10    15 1   
    23    10    66 1   
    24    11    12 1   
    25    11    13 1   
    26    11    14 1   
    27    12    67 1   
    28    12    68 1   
    29    12    69 1   
    30    13    70 1   
    31    13    71 1   
    32    13    72 1   
    33    14    73 1   
    34    14    74 1   
    35    14    75 1   
    36    15    16 2   
    37    15    23 1   
    38    17    18 2   
    39    17    19 1   
    40    17   105 1   
    41    19    20 1   
    42    19    23 1   
    43    19    76 1   
    44    20    21 1   
    45    20    77 1   
    46    20    78 1   
    47    21    22 1   
    48    21    24 1   
    49    21    79 1   
    50    22    23 1   
    51    22    80 1   
    52    22    81 1   
    53    24    25 1   
    54    25    26 ar  
    55    25    30 ar  
    56    26    27 ar  
    57    26    82 1   
    58    27    28 ar  
    59    27    37 1   
    60    28    29 ar  
    61    29    30 ar  
    62    29    34 ar  
    63    30    31 ar  
    64    31    32 ar  
    65    31    83 1   
    66    32    33 ar  
    67    32    84 1   
    68    33    34 ar  
    69    33    35 1   
    70    34    85 1   
    71    35    36 1   
    72    36    86 1   
    73    36    87 1   
    74    36    88 1   
    75    37    38 2   
    76    37    41 1   
    77    38    39 1   
    78    38    89 1   
    79    39    40 1   
    80    40    41 2   
    81    40    42 1   
    82    42    43 1   
    83    42    90 1   
    84    43    44 2   
    85    43    45 1   
    86    45    46 1   
    87    45    47 1   
    88    45    91 1   
    89    46    92 1   
    90    46    93 1   
    91    46    94 1   
    92    47    95 1   
    93    47    96 1   
    94    47    97 1   
    95    48    49 1   
    96    48    50 1   
    97    48    53 1   
    98    48   105 1   
    99    49    50 1   
   100    49    51 1   
   101    49    99 1   
   102    50   100 1   
   103    50   101 1   
   104    51    52 2   
   105    51   102 1   
   106    52   103 1   
   107    52   104 1   
   108    53    54 1   
   109    53    55 1   
   110    98   105 1   
@<TRIPOS>SUBSTRUCTURE
     1 L5T         1 TEMP              0 ****  ****    0 ROOT
