@<TRIPOS>MOLECULE
L5V
   16    17     1     0     0
SMALL
No Charge or Current Charge


@<TRIPOS>ATOM
      1 Cl1         -3.2660    -1.2450    -0.0200 cl         1 L5V      -0.147000
      2 C2          -1.9680    -0.0560     0.0040 ca         1 L5V       0.385000
      3 C3          -2.2500     1.3350     0.0290 ca         1 L5V       0.310900
      4 N4          -1.2630     2.2750     0.0480 nb         1 L5V      -0.631000
      5 C5           0.0120     1.7850     0.0390 ca         1 L5V       0.321900
      6 C6           0.3100     0.3900     0.0140 ca         1 L5V       0.291000
      7 N7          -0.7000    -0.5450    -0.0050 nb         1 L5V      -0.611000
      8 C8           1.7320    -0.0550     0.0060 cc         1 L5V       0.463000
      9 N9           2.1000    -1.3300    -0.0170 nd         1 L5V      -0.471800
     10 N10          3.4710    -1.2170    -0.0140 na         1 L5V      -0.189700
     11 C11          3.8510     0.1100     0.0110 cd         1 L5V       0.413400
     12 N12          2.7590     0.8530     0.0240 nc         1 L5V      -0.692000
     13 H3          -3.2770     1.6970     0.0350 h4         1 L5V       0.046100
     14 H5           0.8040     2.5320     0.0540 h4         1 L5V       0.056100
     15 H10          4.0970    -2.0190    -0.0280 hn         1 L5V       0.385000
     16 H11          4.8850     0.4360     0.0180 h5         1 L5V       0.070100
@<TRIPOS>BOND
     1     1     2 1   
     2     2     3 ar  
     3     2     7 ar  
     4     3     4 ar  
     5     3    13 1   
     6     4     5 ar  
     7     5     6 ar  
     8     5    14 1   
     9     6     7 ar  
    10     6     8 1   
    11     8     9 2   
    12     8    12 1   
    13     9    10 1   
    14    10    11 1   
    15    10    15 1   
    16    11    12 2   
    17    11    16 1   
@<TRIPOS>SUBSTRUCTURE
     1 L5V         1 TEMP              0 ****  ****    0 ROOT
