@<TRIPOS>MOLECULE
L5V
   16    17     1     0     0
SMALL
abcg2


@<TRIPOS>ATOM
      1 CL1         -3.1130    -1.2500    -0.0160 cl         1 L5V      -0.147000
      2 C2          -1.8640    -0.0590     0.0050 ca         1 L5V       0.385000
      3 C3          -2.2090     1.2900     0.0280 ca         1 L5V       0.310900
      4 N4          -1.2610     2.2090     0.0440 nb         1 L5V      -0.631000
      5 C5           0.0000     1.8040     0.0370 ca         1 L5V       0.321900
      6 C6           0.3260     0.4510     0.0150 ca         1 L5V       0.291000
      7 N7          -0.6280    -0.4770    -0.0010 nb         1 L5V      -0.611000
      8 C8           1.7180     0.0080     0.0090 cc         1 L5V       0.463000
      9 N9           2.0640    -1.2620    -0.0200 nd         1 L5V      -0.471800
     10 N10          3.3880    -1.1980    -0.0160 na         1 L5V      -0.189700
     11 C11          3.8020     0.0700     0.0140 cd         1 L5V       0.413400
     12 N12          2.7610     0.8670     0.0300 nc         1 L5V      -0.692000
     13 H3          -3.2430     1.6110     0.0330 h4         1 L5V       0.046100
     14 H5           0.7710     2.5630     0.0500 h4         1 L5V       0.056100
     15 H10          3.9460    -2.0400    -0.0350 hn         1 L5V       0.385000
     16 H11          4.8410     0.3570     0.0220 h5         1 L5V       0.070100
@<TRIPOS>BOND
     1     1     2 1   
     2     2     3 ar  
     3     2     7 ar  
     4     3     4 ar  
     5     3    13 1   
     6     4     5 ar  
     7     5     6 ar  
     8     5    14 1   
     9     6     7 ar  
    10     6     8 1   
    11     8     9 2   
    12     8    12 1   
    13     9    10 1   
    14    10    11 1   
    15    10    15 1   
    16    11    12 2   
    17    11    16 1   
@<TRIPOS>SUBSTRUCTURE
     1 L5V         1 TEMP              0 ****  ****    0 ROOT
