@<TRIPOS>MOLECULE
L5W
   24    25     1     0     0
SMALL
No Charge or Current Charge


@<TRIPOS>ATOM
      1 C4           9.9360    39.2800    -1.0920 c5         1 L5W      -0.078700
      2 C5          11.2890    38.7700    -1.6890 c5         1 L5W      -0.075900
      3 C6          10.8890    38.2730    -3.1150 c5         1 L5W      -0.071900
      4 C7           9.2180    39.8450    -2.3380 c5         1 L5W      -0.060400
      5 C            8.6280    38.5910    -4.5350 c          1 L5W       0.625100
      6 O            9.1520    38.3610    -6.9410 oh         1 L5W      -0.414100
      7 C1           9.3360    38.5290    -3.1410 c5         1 L5W      -0.156000
      8 C2           8.6730    37.4850    -2.1810 c5         1 L5W      -0.071900
      9 C3           9.0770    38.0140    -0.7680 c5         1 L5W      -0.075900
     10 O1           7.5010    39.0220    -4.7510 o          1 L5W      -0.577100
     11 H1          10.0450    39.9790    -0.2550 hc         1 L5W       0.070700
     12 H2          11.7460    37.9790    -1.0820 hc         1 L5W       0.046950
     13 H3          12.0230    39.5830    -1.7510 hc         1 L5W       0.046950
     14 H4          11.1530    37.2210    -3.2800 hc         1 L5W       0.047700
     15 H5          11.4190    38.8650    -3.8720 hc         1 L5W       0.047700
     16 H6           9.7440    40.6910    -2.8000 hc         1 L5W       0.063700
     17 H7           8.1820    40.1490    -2.1400 hc         1 L5W       0.063700
     18 H8          10.4400    37.9310    -5.3310 hn         1 L5W       0.339500
     19 H9           9.2490    37.4690    -7.3510 ho         1 L5W       0.435000
     20 H10          7.5820    37.4720    -2.2890 hc         1 L5W       0.047700
     21 H11          9.0230    36.4620    -2.3630 hc         1 L5W       0.047700
     22 H12          8.1890    38.2810    -0.1830 hc         1 L5W       0.046950
     23 H13          9.6280    37.2680    -0.1820 hc         1 L5W       0.046950
     24 N            9.4660    38.1320    -5.5460 ns         1 L5W      -0.394400
@<TRIPOS>BOND
     1     1     2 1   
     2     1     4 1   
     3     1     9 1   
     4     1    11 1   
     5     2     3 1   
     6     2    12 1   
     7     2    13 1   
     8     3     7 1   
     9     3    14 1   
    10     3    15 1   
    11     4     7 1   
    12     4    16 1   
    13     4    17 1   
    14     5     7 1   
    15     5    10 2   
    16     5    24 1   
    17     6    19 1   
    18     6    24 1   
    19     7     8 1   
    20     8     9 1   
    21     8    20 1   
    22     8    21 1   
    23     9    22 1   
    24     9    23 1   
    25    18    24 1   
@<TRIPOS>SUBSTRUCTURE
     1 L5W         1 TEMP              0 ****  ****    0 ROOT
