@<TRIPOS>MOLECULE
L5W
   24    25     1     0     0
SMALL
bcc


@<TRIPOS>ATOM
      1 C4           9.8880    39.2310    -1.0750 c5         1 L5W      -0.078700
      2 C5          11.2630    38.8330    -1.6240 c5         1 L5W      -0.075900
      3 C6          10.9540    38.3950    -3.0780 c5         1 L5W      -0.071900
      4 C7           9.2250    39.8440    -2.3090 c5         1 L5W      -0.060400
      5 C            8.8240    38.6930    -4.5650 c          1 L5W       0.692100
      6 O            9.1240    38.1160    -6.8270 oh         1 L5W      -0.375100
      7 C1           9.4300    38.6020    -3.1870 c5         1 L5W      -0.156000
      8 C2           8.7540    37.5070    -2.3310 c5         1 L5W      -0.071900
      9 C3           9.0590    37.9560    -0.8790 c5         1 L5W      -0.075900
     10 O1           7.7480    39.2310    -4.7750 o          1 L5W      -0.577100
     11 H1           9.9330    39.8700    -0.1920 hc         1 L5W       0.070700
     12 H2          11.7260    38.0380    -1.0360 hc         1 L5W       0.046950
     13 H3          11.9470    39.6830    -1.6150 hc         1 L5W       0.046950
     14 H4          11.2440    37.3590    -3.2680 hc         1 L5W       0.047700
     15 H5          11.4900    39.0250    -3.7920 hc         1 L5W       0.047700
     16 H6           9.7470    40.7260    -2.6890 hc         1 L5W       0.063700
     17 H7           8.1730    40.0930    -2.1600 hc         1 L5W       0.063700
     18 H8          10.4200    37.6270    -5.3720 hn         1 L5W       0.339500
     19 H9           8.5430    37.3510    -6.9380 ho         1 L5W       0.396000
     20 H10          7.6780    37.4810    -2.5150 hc         1 L5W       0.047700
     21 H11          9.1500    36.5180    -2.5670 hc         1 L5W       0.047700
     22 H12          8.1340    38.1750    -0.3420 hc         1 L5W       0.046950
     23 H13          9.5960    37.1970    -0.3080 hc         1 L5W       0.046950
     24 N            9.5430    38.1000    -5.5330 ns         1 L5W      -0.461400
@<TRIPOS>BOND
     1     1     2 1   
     2     1     4 1   
     3     1     9 1   
     4     1    11 1   
     5     2     3 1   
     6     2    12 1   
     7     2    13 1   
     8     3     7 1   
     9     3    14 1   
    10     3    15 1   
    11     4     7 1   
    12     4    16 1   
    13     4    17 1   
    14     5     7 1   
    15     5    10 2   
    16     5    24 1   
    17     6    19 1   
    18     6    24 1   
    19     7     8 1   
    20     8     9 1   
    21     8    20 1   
    22     8    21 1   
    23     9    22 1   
    24     9    23 1   
    25    18    24 1   
@<TRIPOS>SUBSTRUCTURE
     1 L5W         1 TEMP              0 ****  ****    0 ROOT
