@<TRIPOS>MOLECULE
L5X
   26    27     1     0     0
SMALL
No Charge or Current Charge


@<TRIPOS>ATOM
      1 C01         -0.9040     4.5980   -21.9040 c3         1 L5X      -0.084100
      2 C02         -0.7570     3.4830   -20.8430 c5         1 L5X       0.052300
      3 C03         -2.1120     2.8770   -20.3620 c5         1 L5X       0.122800
      4 C05         -1.5050     1.3870   -21.9420 c2         1 L5X       0.698100
      5 C07         -2.6700    -0.4270   -23.2150 ca         1 L5X       0.340000
      6 C08         -2.5470    -1.8250   -23.2230 ca         1 L5X      -0.183000
      7 C09         -3.6210    -2.6300   -23.6400 ca         1 L5X      -0.052000
      8 C10         -4.8190    -2.0280   -24.0590 ca         1 L5X      -0.161000
      9 C11         -4.9380    -0.6300   -24.0640 ca         1 L5X       0.164100
     10 C13         -3.8640     0.1690   -23.6480 ca         1 L5X      -0.227000
     11 N04         -2.5460     1.8300   -21.3440 n2         1 L5X      -0.666900
     12 N06         -1.5860     0.3470   -22.8200 nu         1 L5X      -0.916200
     13 O12         -6.1000    -0.0540   -24.4790 oh         1 L5X      -0.532100
     14 S14          0.0930     2.0380   -21.5910 ss         1 L5X      -0.393200
     15 H1          -1.4310     5.4650   -21.4890 hc         1 L5X       0.046700
     16 H2           0.0780     4.9400   -22.2510 hc         1 L5X       0.046700
     17 H3          -1.4670     4.2520   -22.7790 hc         1 L5X       0.046700
     18 H4          -0.1720     3.8770   -20.0010 h1         1 L5X       0.087700
     19 H5          -2.0030     2.4230   -19.3670 h1         1 L5X       0.068700
     20 H6          -2.8750     3.6630   -20.2720 h1         1 L5X       0.068700
     21 H7          -1.6210    -2.2930   -22.9000 ha         1 L5X       0.120000
     22 H8          -3.5260    -3.7140   -23.6400 ha         1 L5X       0.117000
     23 H9          -5.6540    -2.6450   -24.3830 ha         1 L5X       0.131000
     24 H10         -3.9490     1.2510   -23.6610 ha         1 L5X       0.130000
     25 H11         -0.6880    -0.1070   -22.9410 hn         1 L5X       0.506000
     26 H12         -6.0050     0.9190   -24.4060 ho         1 L5X       0.469000
@<TRIPOS>BOND
     1     1     2 1   
     2     1    15 1   
     3     1    16 1   
     4     1    17 1   
     5     2     3 1   
     6     2    14 1   
     7     2    18 1   
     8     3    11 1   
     9     3    19 1   
    10     3    20 1   
    11     4    11 2   
    12     4    12 1   
    13     4    14 1   
    14     5     6 ar  
    15     5    10 ar  
    16     5    12 1   
    17     6     7 ar  
    18     6    21 1   
    19     7     8 ar  
    20     7    22 1   
    21     8     9 ar  
    22     8    23 1   
    23     9    10 ar  
    24     9    13 1   
    25    10    24 1   
    26    12    25 1   
    27    13    26 1   
@<TRIPOS>SUBSTRUCTURE
     1 L5X         1 TEMP              0 ****  ****    0 ROOT
