@<TRIPOS>MOLECULE
L5X
   26    27     1     0     0
SMALL
bcc


@<TRIPOS>ATOM
      1 C01         -2.7210     3.9810   -20.3230 c3         1 L5X      -0.084100
      2 C02         -1.5550     3.6060   -21.2200 c5         1 L5X       0.004400
      3 C03         -0.4860     2.7660   -20.5030 c5         1 L5X       0.122800
      4 C05         -1.5470     1.1180   -21.6080 c2         1 L5X       0.698100
      5 C07         -2.8010    -0.5090   -22.9830 ca         1 L5X       0.201600
      6 C08         -3.8510    -1.3850   -22.7200 ca         1 L5X      -0.201000
      7 C09         -4.6910    -1.7670   -23.7560 ca         1 L5X      -0.070000
      8 C10         -4.5160    -1.2800   -25.0410 ca         1 L5X      -0.179000
      9 C11         -3.4580    -0.4130   -25.3010 ca         1 L5X       0.164100
     10 C13         -2.5850    -0.0470   -24.2800 ca         1 L5X      -0.245000
     11 N04         -0.8100     1.3630   -20.6050 n2         1 L5X      -0.666900
     12 N06         -1.9430    -0.1410   -21.9410 nu         1 L5X      -0.722600
     13 O12         -3.3060     0.0260   -26.5650 oh         1 L5X      -0.493100
     14 S14         -2.1000     2.5080   -22.5770 ss         1 L5X      -0.345300
     15 H1          -2.3770     4.6460   -19.5280 hc         1 L5X       0.046700
     16 H2          -3.5020     4.4980   -20.8780 hc         1 L5X       0.046700
     17 H3          -3.1600     3.0980   -19.8570 hc         1 L5X       0.046700
     18 H4          -1.1140     4.4970   -21.6680 h1         1 L5X       0.087700
     19 H5           0.5000     2.9460   -20.9460 h1         1 L5X       0.068700
     20 H6          -0.4210     3.0690   -19.4550 h1         1 L5X       0.068700
     21 H7          -4.0150    -1.7480   -21.7130 ha         1 L5X       0.138000
     22 H8          -5.5080    -2.4470   -23.5530 ha         1 L5X       0.135000
     23 H9          -5.1840    -1.5730   -25.8410 ha         1 L5X       0.149000
     24 H10         -1.7230     0.5720   -24.5050 ha         1 L5X       0.148000
     25 H11         -1.7690    -0.8320   -21.2260 hn         1 L5X       0.450800
     26 H12         -2.5450     0.6140   -26.6320 ho         1 L5X       0.430000
@<TRIPOS>BOND
     1     1     2 1   
     2     1    15 1   
     3     1    16 1   
     4     1    17 1   
     5     2     3 1   
     6     2    14 1   
     7     2    18 1   
     8     3    11 1   
     9     3    19 1   
    10     3    20 1   
    11     4    11 2   
    12     4    12 1   
    13     4    14 1   
    14     5     6 ar  
    15     5    10 ar  
    16     5    12 1   
    17     6     7 ar  
    18     6    21 1   
    19     7     8 ar  
    20     7    22 1   
    21     8     9 ar  
    22     8    23 1   
    23     9    10 ar  
    24     9    13 1   
    25    10    24 1   
    26    12    25 1   
    27    13    26 1   
@<TRIPOS>SUBSTRUCTURE
     1 L5X         1 TEMP              0 ****  ****    0 ROOT
