@<TRIPOS>MOLECULE
L5Y
   35    37     1     0     0
SMALL
No Charge or Current Charge


@<TRIPOS>ATOM
      1 O1           5.2290    -3.3270    -0.3660 oh         1 L5Y      -0.667000
      2 C2           5.6750    -2.0930     0.2340 c3         1 L5Y       0.145600
      3 C3           4.6270    -0.9570     0.0460 c3         1 L5Y       0.220800
      4 N4           3.2790    -1.3860     0.4800 nu         1 L5Y      -0.956200
      5 C5           2.1060    -0.6410     0.4010 ca         1 L5Y       0.372000
      6 C6           0.8810    -1.2960     0.2970 ca         1 L5Y      -0.205000
      7 C7          -0.3090    -0.5470     0.2190 ca         1 L5Y       0.393700
      8 N8          -0.2740     0.8120     0.2470 nb         1 L5Y      -0.676000
      9 C9           0.9150     1.4560     0.3520 ca         1 L5Y       0.290300
     10 C10          2.1250     0.7530     0.4320 ca         1 L5Y      -0.213000
     11 C11          0.9170     2.9990     0.3850 c3         1 L5Y       0.260700
     12 F12         -0.3220     3.5420     0.2780 f          1 L5Y      -0.108333
     13 F13          1.4470     3.4710     1.5380 f          1 L5Y      -0.108333
     14 F14          1.6540     3.5180    -0.6250 f          1 L5Y      -0.108333
     15 C15         -1.6220    -1.2460     0.1050 cc         1 L5Y       0.281900
     16 N16         -1.7520    -2.5910     0.0700 nd         1 L5Y      -0.502100
     17 N17         -3.1330    -2.8000    -0.0400 na         1 L5Y      -0.042400
     18 C18         -3.8320    -1.6140    -0.0720 ca         1 L5Y      -0.112200
     19 C19         -5.2120    -1.3620    -0.1740 ca         1 L5Y       0.333900
     20 N20         -5.6830    -0.0860    -0.1860 nb         1 L5Y      -0.641000
     21 C21         -4.7760     0.9310    -0.0980 ca         1 L5Y       0.284900
     22 C22         -3.3800     0.7290     0.0060 ca         1 L5Y      -0.062000
     23 C23         -2.9270    -0.6030     0.0160 ca         1 L5Y      -0.165900
     24 HO1          5.9420    -3.9900    -0.2250 ho         1 L5Y       0.451000
     25 H2           5.8430    -2.2380     1.3100 h1         1 L5Y       0.034700
     26 H2A          6.6270    -1.7710    -0.2080 h1         1 L5Y       0.034700
     27 H3           4.9550    -0.0800     0.6200 h1         1 L5Y       0.052200
     28 H3A          4.6040    -0.6710    -1.0150 h1         1 L5Y       0.052200
     29 HN4          3.1470    -2.4010     0.4540 hn         1 L5Y       0.503000
     30 H6           0.8480    -2.3790     0.2740 ha         1 L5Y       0.141000
     31 H10          3.0600     1.2950     0.5220 ha         1 L5Y       0.135000
     32 HN17        -3.5290    -3.7390    -0.0880 hn         1 L5Y       0.381000
     33 H19         -5.9400    -2.1690    -0.2450 h4         1 L5Y       0.022100
     34 H21         -5.1840     1.9410    -0.1110 h4         1 L5Y       0.023100
     35 H22         -2.7100     1.5810     0.0730 ha         1 L5Y       0.154000
@<TRIPOS>BOND
     1     1     2 1   
     2     1    24 1   
     3     2     3 1   
     4     2    25 1   
     5     2    26 1   
     6     3     4 1   
     7     3    27 1   
     8     3    28 1   
     9     4     5 1   
    10     4    29 1   
    11     5     6 ar  
    12     5    10 ar  
    13     6     7 ar  
    14     6    30 1   
    15     7     8 ar  
    16     7    15 1   
    17     8     9 ar  
    18     9    10 ar  
    19     9    11 1   
    20    10    31 1   
    21    11    12 1   
    22    11    13 1   
    23    11    14 1   
    24    15    16 2   
    25    15    23 1   
    26    16    17 1   
    27    17    18 1   
    28    17    32 1   
    29    18    19 ar  
    30    18    23 ar  
    31    19    20 ar  
    32    19    33 1   
    33    20    21 ar  
    34    21    22 ar  
    35    21    34 1   
    36    22    23 ar  
    37    22    35 1   
@<TRIPOS>SUBSTRUCTURE
     1 L5Y         1 TEMP              0 ****  ****    0 ROOT
