@<TRIPOS>MOLECULE
L5Y
   35    37     1     0     0
SMALL
abcg2


@<TRIPOS>ATOM
      1 O1           5.4270    -3.1070    -0.3880 oh         1 L5Y      -0.667000
      2 C2           5.5960    -2.0030     0.4740 c3         1 L5Y       0.145600
      3 C3           4.5800    -0.9440     0.1120 c3         1 L5Y       0.220800
      4 N4           3.2440    -1.4760     0.2150 nu         1 L5Y      -0.956200
      5 C5           2.1200    -0.7330     0.1720 ca         1 L5Y       0.372000
      6 C6           0.8610    -1.3510     0.1030 ca         1 L5Y      -0.205000
      7 C7          -0.2830    -0.5770     0.0960 ca         1 L5Y       0.393700
      8 N8          -0.2620     0.7570     0.1550 nb         1 L5Y      -0.676000
      9 C9           0.9220     1.3320     0.2130 ca         1 L5Y       0.290300
     10 C10          2.1340     0.6710     0.2160 ca         1 L5Y      -0.213000
     11 C11          0.9230     2.8390     0.2760 c3         1 L5Y       0.260700
     12 F12         -0.3010     3.3530     0.2920 f          1 L5Y      -0.108333
     13 F13          1.5570     3.2790     1.3740 f          1 L5Y      -0.108333
     14 F14          1.5680     3.3720    -0.7730 f          1 L5Y      -0.108333
     15 C15         -1.6130    -1.1800     0.0250 cc         1 L5Y       0.281900
     16 N16         -1.7760    -2.4780    -0.0770 nd         1 L5Y      -0.502100
     17 N17         -3.0790    -2.7120    -0.1200 na         1 L5Y      -0.042400
     18 C18         -3.8090    -1.5710    -0.0430 ca         1 L5Y      -0.112200
     19 C19         -5.1830    -1.3110    -0.0450 ca         1 L5Y       0.333900
     20 N20         -5.6210    -0.0800     0.0490 nb         1 L5Y      -0.641000
     21 C21         -4.7410     0.9320     0.1440 ca         1 L5Y       0.284900
     22 C22         -3.3730     0.7810     0.1500 ca         1 L5Y      -0.062000
     23 C23         -2.8830    -0.5250     0.0530 ca         1 L5Y      -0.165900
     24 HO1          5.9580    -3.8310    -0.0510 ho         1 L5Y       0.451000
     25 H2           5.4580    -2.2880     1.5230 h1         1 L5Y       0.034700
     26 H2A          6.5950    -1.5610     0.3840 h1         1 L5Y       0.034700
     27 H3           4.7120    -0.1190     0.8130 h1         1 L5Y       0.052200
     28 H3A          4.7820    -0.5520    -0.8920 h1         1 L5Y       0.052200
     29 HN4          3.1480    -2.4570     0.0070 hn         1 L5Y       0.503000
     30 H6           0.7820    -2.4290     0.0620 ha         1 L5Y       0.141000
     31 H10          3.0620     1.2230     0.2530 ha         1 L5Y       0.135000
     32 HN17        -3.4040    -3.6590    -0.1920 hn         1 L5Y       0.381000
     33 H19         -5.9200    -2.1040    -0.1210 h4         1 L5Y       0.022100
     34 H21         -5.1760     1.9210     0.2200 h4         1 L5Y       0.023100
     35 H22         -2.7080     1.6280     0.2270 ha         1 L5Y       0.154000
@<TRIPOS>BOND
     1     1     2 1   
     2     1    24 1   
     3     2     3 1   
     4     2    25 1   
     5     2    26 1   
     6     3     4 1   
     7     3    27 1   
     8     3    28 1   
     9     4     5 1   
    10     4    29 1   
    11     5     6 ar  
    12     5    10 ar  
    13     6     7 ar  
    14     6    30 1   
    15     7     8 ar  
    16     7    15 1   
    17     8     9 ar  
    18     9    10 ar  
    19     9    11 1   
    20    10    31 1   
    21    11    12 1   
    22    11    13 1   
    23    11    14 1   
    24    15    16 2   
    25    15    23 1   
    26    16    17 1   
    27    17    18 1   
    28    17    32 1   
    29    18    19 ar  
    30    18    23 ar  
    31    19    20 ar  
    32    19    33 1   
    33    20    21 ar  
    34    21    22 ar  
    35    21    34 1   
    36    22    23 ar  
    37    22    35 1   
@<TRIPOS>SUBSTRUCTURE
     1 L5Y         1 TEMP              0 ****  ****    0 ROOT
