@<TRIPOS>MOLECULE
L5Z
   45    48     1     0     0
SMALL
No Charge or Current Charge


@<TRIPOS>ATOM
      1 N01          7.6990     1.7400     1.6390 nc         1 L5Z      -0.669000
      2 C02          6.4130     1.4070     1.5480 cd         1 L5Z       0.431400
      3 N03          6.1910     0.8410     0.3090 na         1 L5Z      -0.191000
      4 C04          7.4060     0.6080    -0.3070 cd         1 L5Z      -0.191000
      5 C05          8.3020     1.2530     0.5040 cc         1 L5Z       0.227900
      6 C1          -5.4690     0.4700    -0.3200 ca         1 L5Z      -0.046300
      7 N11          4.0890     0.0030    -0.3410 nb         1 L5Z      -0.210000
      8 C12          5.2710    -0.2030     0.2920 ca         1 L5Z       0.242500
      9 N13          5.5760    -1.3790     0.9010 nb         1 L5Z      -0.194000
     10 C14          4.6740    -2.3780     0.8760 ca         1 L5Z       0.138900
     11 C15          3.4380    -2.2260     0.2390 ca         1 L5Z      -0.234000
     12 C16          3.1810    -0.9930    -0.3720 ca         1 L5Z       0.160300
     13 C17          1.8690    -0.7170    -1.0850 c3         1 L5Z      -0.140700
     14 C18          0.7860    -0.2180    -0.1140 c3         1 L5Z       0.171800
     15 N19         -0.4730     0.0100    -0.8430 n7         1 L5Z      -0.850400
     16 C2          -6.0330     0.0400     0.8970 ca         1 L5Z      -0.149000
     17 C21         -1.5800     0.4510    -0.0220 cx         1 L5Z       0.100500
     18 C22         -2.4080    -0.6130     0.6580 cx         1 L5Z      -0.117400
     19 C23         -2.9720     0.1440    -0.5210 cx         1 L5Z      -0.107700
     20 C24         -4.1050     1.1470    -0.3390 c3         1 L5Z      -0.007100
     21 C3          -7.2870    -0.5910     0.9080 ca         1 L5Z       0.171000
     22 C4          -7.9890    -0.7980    -0.2890 ca         1 L5Z      -0.153000
     23 C5          -7.4320    -0.3740    -1.5080 ca         1 L5Z      -0.083000
     24 C6          -6.1750     0.2580    -1.5210 ca         1 L5Z      -0.124000
     25 F7          -7.8210    -1.0000     2.0790 f          1 L5Z      -0.182000
     26 H02          5.6330     1.5440     2.2900 h5         1 L5Z       0.072100
     27 H04          7.5390     0.0480    -1.2260 h4         1 L5Z       0.175000
     28 H05          9.3710     1.3590     0.3670 h4         1 L5Z       0.041100
     29 H14          4.9490    -3.3060     1.3730 h4         1 L5Z       0.033100
     30 H15          2.7100    -3.0340     0.2220 ha         1 L5Z       0.144000
     31 H17          2.0170     0.0260    -1.8780 hc         1 L5Z       0.069200
     32 H17A         1.5160    -1.6310    -1.5770 hc         1 L5Z       0.069200
     33 H18          0.6420    -0.9680     0.6770 h1         1 L5Z       0.041200
     34 H18A         1.1300     0.7100     0.3650 h1         1 L5Z       0.041200
     35 HN19        -0.2960     0.7130    -1.5720 hn         1 L5Z       0.418000
     36 H2          -5.5010     0.1900     1.8320 ha         1 L5Z       0.128000
     37 H21         -1.4360     1.3910     0.5150 h1         1 L5Z       0.057700
     38 H22         -2.1310    -1.6530     0.5040 hc         1 L5Z       0.077200
     39 H22A        -2.7980    -0.3890     1.6470 hc         1 L5Z       0.077200
     40 H23         -3.0490    -0.4030    -1.4570 hc         1 L5Z       0.091700
     41 H24         -4.0660     1.8860    -1.1490 hc         1 L5Z       0.052200
     42 H24A        -3.9590     1.7170     0.5870 hc         1 L5Z       0.052200
     43 H4          -8.9600    -1.2870    -0.2710 ha         1 L5Z       0.132000
     44 H5          -7.9710    -0.5330    -2.4390 ha         1 L5Z       0.117000
     45 H6          -5.7480     0.5810    -2.4680 ha         1 L5Z       0.116000
@<TRIPOS>BOND
     1     1     2 2   
     2     1     5 1   
     3     2     3 1   
     4     2    26 1   
     5     3     4 1   
     6     3     8 1   
     7     4     5 2   
     8     4    27 1   
     9     5    28 1   
    10     6    16 ar  
    11     6    20 1   
    12     6    24 ar  
    13     7     8 ar  
    14     7    12 ar  
    15     8     9 ar  
    16     9    10 ar  
    17    10    11 ar  
    18    10    29 1   
    19    11    12 ar  
    20    11    30 1   
    21    12    13 1   
    22    13    14 1   
    23    13    31 1   
    24    13    32 1   
    25    14    15 1   
    26    14    33 1   
    27    14    34 1   
    28    15    17 1   
    29    15    35 1   
    30    16    21 ar  
    31    16    36 1   
    32    17    18 1   
    33    17    19 1   
    34    17    37 1   
    35    18    19 1   
    36    18    38 1   
    37    18    39 1   
    38    19    20 1   
    39    19    40 1   
    40    20    41 1   
    41    20    42 1   
    42    21    22 ar  
    43    21    25 1   
    44    22    23 ar  
    45    22    43 1   
    46    23    24 ar  
    47    23    44 1   
    48    24    45 1   
@<TRIPOS>SUBSTRUCTURE
     1 L5Z         1 TEMP              0 ****  ****    0 ROOT
