@<TRIPOS>MOLECULE
L5Z
   45    48     1     0     0
SMALL
abcg2


@<TRIPOS>ATOM
      1 N01          6.4910     2.6430     0.9740 nc         1 L5Z      -0.669000
      2 C02          5.5530     1.8770     0.5030 cd         1 L5Z       0.431400
      3 N03          5.8670     0.5560     0.6460 na         1 L5Z      -0.191000
      4 C04          7.1000     0.5000     1.2560 cd         1 L5Z      -0.191000
      5 C05          7.4630     1.7950     1.4460 cc         1 L5Z       0.227900
      6 C1          -5.2310     0.6120    -0.0970 ca         1 L5Z      -0.046300
      7 N11          3.9480    -0.2370    -0.3550 nb         1 L5Z      -0.210000
      8 C12          5.0790    -0.5300     0.2540 ca         1 L5Z       0.242500
      9 N13          5.5540    -1.7280     0.5320 nb         1 L5Z      -0.194000
     10 C14          4.7910    -2.7470     0.1540 ca         1 L5Z       0.138900
     11 C15          3.5790    -2.5680    -0.4860 ca         1 L5Z      -0.234000
     12 C16          3.1820    -1.2580    -0.7330 ca         1 L5Z       0.160300
     13 C17          1.8840    -0.9290    -1.3950 c3         1 L5Z      -0.140700
     14 C18          0.8630    -0.3990    -0.3870 c3         1 L5Z       0.171800
     15 N19         -0.3760    -0.0700    -1.0610 n7         1 L5Z      -0.850400
     16 C2          -5.6980     0.2220     1.1550 ca         1 L5Z      -0.149000
     17 C21         -1.4070     0.3540    -0.1680 cx         1 L5Z       0.100500
     18 C22         -2.2580    -0.7090     0.4640 cx         1 L5Z      -0.117400
     19 C23         -2.8280     0.1820    -0.5980 cx         1 L5Z      -0.107700
     20 C24         -3.8650     1.2240    -0.2410 c3         1 L5Z      -0.007100
     21 C3          -6.9350    -0.3850     1.2570 ca         1 L5Z       0.171000
     22 C4          -7.7390    -0.6250     0.1600 ca         1 L5Z      -0.153000
     23 C5          -7.2680    -0.2320    -1.0860 ca         1 L5Z      -0.083000
     24 C6          -6.0300     0.3790    -1.2160 ca         1 L5Z      -0.124000
     25 F7          -7.3710    -0.7540     2.4750 f          1 L5Z      -0.182000
     26 H02          4.6300     2.2000     0.0520 h5         1 L5Z       0.072100
     27 H04          7.5880    -0.4300     1.4850 h4         1 L5Z       0.175000
     28 H05          8.3720     2.1640     1.8960 h4         1 L5Z       0.041100
     29 H14          5.1650    -3.7400     0.3710 h4         1 L5Z       0.033100
     30 H15          2.9720    -3.4110    -0.7830 ha         1 L5Z       0.144000
     31 H17          2.0620    -0.1690    -2.1620 hc         1 L5Z       0.069200
     32 H17A         1.4810    -1.8130    -1.8910 hc         1 L5Z       0.069200
     33 H18          0.6540    -1.1720     0.3580 h1         1 L5Z       0.041200
     34 H18A         1.2980     0.4520     0.1570 h1         1 L5Z       0.041200
     35 HN19        -0.2050     0.6560    -1.7470 hn         1 L5Z       0.418000
     36 H2          -5.1060     0.3940     2.0450 ha         1 L5Z       0.128000
     37 H21         -1.2010     1.2260     0.4590 h1         1 L5Z       0.057700
     38 H22         -2.0420    -1.7370     0.2010 hc         1 L5Z       0.077200
     39 H22A        -2.5810    -0.5650     1.4880 hc         1 L5Z       0.077200
     40 H23         -2.9670    -0.2770    -1.5710 hc         1 L5Z       0.091700
     41 H24         -3.8840     1.9990    -1.0120 hc         1 L5Z       0.052200
     42 H24A        -3.5810     1.7160     0.6920 hc         1 L5Z       0.052200
     43 H4          -8.7040    -1.1010     0.2740 ha         1 L5Z       0.132000
     44 H5          -7.8790    -0.4040    -1.9630 ha         1 L5Z       0.117000
     45 H6          -5.6790     0.6800    -2.1950 ha         1 L5Z       0.116000
@<TRIPOS>BOND
     1     1     2 2   
     2     1     5 1   
     3     2     3 1   
     4     2    26 1   
     5     3     4 1   
     6     3     8 1   
     7     4     5 2   
     8     4    27 1   
     9     5    28 1   
    10     6    16 ar  
    11     6    20 1   
    12     6    24 ar  
    13     7     8 ar  
    14     7    12 ar  
    15     8     9 ar  
    16     9    10 ar  
    17    10    11 ar  
    18    10    29 1   
    19    11    12 ar  
    20    11    30 1   
    21    12    13 1   
    22    13    14 1   
    23    13    31 1   
    24    13    32 1   
    25    14    15 1   
    26    14    33 1   
    27    14    34 1   
    28    15    17 1   
    29    15    35 1   
    30    16    21 ar  
    31    16    36 1   
    32    17    18 1   
    33    17    19 1   
    34    17    37 1   
    35    18    19 1   
    36    18    38 1   
    37    18    39 1   
    38    19    20 1   
    39    19    40 1   
    40    20    41 1   
    41    20    42 1   
    42    21    22 ar  
    43    21    25 1   
    44    22    23 ar  
    45    22    43 1   
    46    23    24 ar  
    47    23    44 1   
    48    24    45 1   
@<TRIPOS>SUBSTRUCTURE
     1 L5Z         1 TEMP              0 ****  ****    0 ROOT
