@<TRIPOS>MOLECULE
L60
   15    15     1     0     0
SMALL
No Charge or Current Charge


@<TRIPOS>ATOM
      1 O           -2.2890     0.0290    -0.0360 o          1 L60      -0.614000
      2 C           -1.0770     0.0190     0.0470 c          1 L60       0.615000
      3 N1          -0.3450     1.1760     0.1000 ns         1 L60      -0.527400
      4 C3           1.1200     1.2690     0.1590 c6         1 L60       0.115000
      5 C2           1.7840    -0.0080    -0.3880 c6         1 L60      -0.108400
      6 C1           1.0980    -1.2660     0.1750 c6         1 L60       0.115000
      7 N           -0.3640    -1.1490     0.1150 ns         1 L60      -0.527400
      8 H1          -0.8810     2.0340     0.0630 hn         1 L60       0.327500
      9 H2           1.4530     2.1470    -0.4140 h1         1 L60       0.038950
     10 H3           1.4100     1.4160     1.2090 h1         1 L60       0.038950
     11 H4           1.6950    -0.0140    -1.4820 hc         1 L60       0.060700
     12 H5           2.8570    -0.0150    -0.1580 hc         1 L60       0.060700
     13 H6           1.4170    -2.1560    -0.3850 h1         1 L60       0.038950
     14 H7           1.3870    -1.4030     1.2270 h1         1 L60       0.038950
     15 H8          -0.9150    -1.9980     0.0890 hn         1 L60       0.327500
@<TRIPOS>BOND
     1     1     2 2   
     2     2     3 1   
     3     2     7 1   
     4     3     4 1   
     5     3     8 1   
     6     4     5 1   
     7     4     9 1   
     8     4    10 1   
     9     5     6 1   
    10     5    11 1   
    11     5    12 1   
    12     6     7 1   
    13     6    13 1   
    14     6    14 1   
    15     7    15 1   
@<TRIPOS>SUBSTRUCTURE
     1 L60         1 TEMP              0 ****  ****    0 ROOT
