@<TRIPOS>MOLECULE
L60
   15    15     1     0     0
SMALL
abcg2


@<TRIPOS>ATOM
      1 O           -2.2800     0.0290     0.0070 o          1 L60      -0.614000
      2 C           -1.0480     0.0190     0.0260 c          1 L60       0.615000
      3 N1          -0.3230     1.1650     0.0100 ns         1 L60      -0.527400
      4 C3           1.1150     1.2390     0.1690 c6         1 L60       0.115000
      5 C2           1.7520    -0.0080    -0.4120 c6         1 L60      -0.108400
      6 C1           1.0930    -1.2350     0.1870 c6         1 L60       0.115000
      7 N           -0.3420    -1.1400     0.0200 ns         1 L60      -0.527400
      8 H1          -0.8540     2.0150     0.0910 hn         1 L60       0.327500
      9 H2           1.4750     2.1300    -0.3460 h1         1 L60       0.038950
     10 H3           1.3910     1.3440     1.2240 h1         1 L60       0.038950
     11 H4           1.6350    -0.0150    -1.4980 hc         1 L60       0.060700
     12 H5           2.8200    -0.0150    -0.1950 hc         1 L60       0.060700
     13 H6           1.4400    -2.1400    -0.3120 h1         1 L60       0.038950
     14 H7           1.3630    -1.3270     1.2450 h1         1 L60       0.038950
     15 H8          -0.8880    -1.9810     0.1070 hn         1 L60       0.327500
@<TRIPOS>BOND
     1     1     2 2   
     2     2     3 1   
     3     2     7 1   
     4     3     4 1   
     5     3     8 1   
     6     4     5 1   
     7     4     9 1   
     8     4    10 1   
     9     5     6 1   
    10     5    11 1   
    11     5    12 1   
    12     6     7 1   
    13     6    13 1   
    14     6    14 1   
    15     7    15 1   
@<TRIPOS>SUBSTRUCTURE
     1 L60         1 TEMP              0 ****  ****    0 ROOT
