@<TRIPOS>MOLECULE
L61
   37    37     1     0     0
SMALL
bcc


@<TRIPOS>ATOM
      1 O1           0.6320    -4.0690     0.2870 o          1 L61      -0.506100
      2 C2           0.5010    -2.9800     0.7900 c          1 L61       0.585900
      3 C3           1.5700    -1.9260     0.8100 c3         1 L61      -0.221400
      4 C4           1.2670    -0.7360    -0.1230 c3         1 L61       0.191000
      5 N1           0.0220    -0.0670     0.1970 ns         1 L61      -0.575900
      6 C5          -1.1570    -0.4570    -0.3250 c          1 L61       0.754100
      7 O3          -2.1490     0.3300     0.0880 os         1 L61      -0.439900
      8 C6          -3.4710     0.0220    -0.3610 c3         1 L61       0.162400
      9 O2          -1.2970    -1.4060    -1.0720 o          1 L61      -0.593000
     10 C10          2.4030     0.2590    -0.0920 ca         1 L61      -0.106300
     11 C15          3.1410     0.5140    -1.2420 ca         1 L61      -0.114500
     12 C14          4.1910     1.4230    -1.2230 ca         1 L61      -0.127000
     13 C13          4.5100     2.0930    -0.0500 ca         1 L61      -0.118000
     14 C12          3.7750     1.8470     1.1040 ca         1 L61      -0.127000
     15 C11          2.7320     0.9320     1.0830 ca         1 L61      -0.114500
     16 C7          -4.4350     1.0190     0.2570 c3         1 L61      -0.067700
     17 C8          -4.1100     2.4540    -0.1430 c3         1 L61      -0.087600
     18 C9          -5.8540     0.6430    -0.1630 c3         1 L61      -0.087600
     19 HC2         -0.4340    -2.7100     1.3080 h4         1 L61      -0.011800
     20 H31C         1.6630    -1.5610     1.8370 hc         1 L61       0.069700
     21 H32C         2.5220    -2.3670     0.5130 hc         1 L61       0.069700
     22 H4           1.1840    -1.1210    -1.1410 h1         1 L61       0.086700
     23 H1           0.0360     0.7050     0.8450 hn         1 L61       0.330500
     24 H61C        -3.5200     0.0810    -1.4530 h1         1 L61       0.051200
     25 H62C        -3.7360    -0.9970    -0.0650 h1         1 L61       0.051200
     26 H7          -4.3660     0.9300     1.3470 hc         1 L61       0.056700
     27 H15          2.8950    -0.0040    -2.1620 ha         1 L61       0.132000
     28 H11          2.1780     0.7470     1.9960 ha         1 L61       0.132000
     29 H14          4.7580     1.6080    -2.1260 ha         1 L61       0.134000
     30 H13          5.3270     2.8020    -0.0330 ha         1 L61       0.134000
     31 H12          4.0160     2.3650     2.0230 ha         1 L61       0.134000
     32 H81C        -4.8290     3.1480     0.2950 hc         1 L61       0.037367
     33 H82C        -3.1180     2.7600     0.1870 hc         1 L61       0.037367
     34 H83C        -4.1560     2.5740    -1.2280 hc         1 L61       0.037367
     35 H91C        -6.1040    -0.3780     0.1280 hc         1 L61       0.037367
     36 H92C        -6.5830     1.3070     0.3020 hc         1 L61       0.037367
     37 H93C        -5.9770     0.7230    -1.2450 hc         1 L61       0.037367
@<TRIPOS>BOND
     1     1     2 2   
     2     2     3 1   
     3     2    19 1   
     4     3     4 1   
     5     3    20 1   
     6     3    21 1   
     7     4     5 1   
     8     4    10 1   
     9     4    22 1   
    10     5     6 1   
    11     5    23 1   
    12     6     7 1   
    13     6     9 2   
    14     7     8 1   
    15     8    16 1   
    16     8    24 1   
    17     8    25 1   
    18    10    11 ar  
    19    10    15 ar  
    20    11    12 ar  
    21    11    27 1   
    22    12    13 ar  
    23    12    29 1   
    24    13    14 ar  
    25    13    30 1   
    26    14    15 ar  
    27    14    31 1   
    28    15    28 1   
    29    16    17 1   
    30    16    18 1   
    31    16    26 1   
    32    17    32 1   
    33    17    33 1   
    34    17    34 1   
    35    18    35 1   
    36    18    36 1   
    37    18    37 1   
@<TRIPOS>SUBSTRUCTURE
     1 L61         1 TEMP              0 ****  ****    0 ROOT
