@<TRIPOS>MOLECULE
L61
   37    37     1     0     0
SMALL
No Charge or Current Charge


@<TRIPOS>ATOM
      1 O1           0.8150    -4.0510    -0.0140 o          1 L61      -0.506100
      2 C2           0.6300    -3.1370     0.7820 c          1 L61       0.585900
      3 C3           1.6010    -1.9720     0.9490 c3         1 L61      -0.221400
      4 C4           1.3100    -0.8430    -0.0610 c3         1 L61       0.191000
      5 N1           0.0140    -0.2200     0.1910 ns         1 L61      -0.508900
      6 C5          -1.1660    -0.5950    -0.3780 c          1 L61       0.638100
      7 O3          -2.1490     0.2320     0.0680 os         1 L61      -0.463100
      8 C6          -3.4840     0.0060    -0.4180 c3         1 L61       0.185600
      9 O2          -1.3090    -1.5230    -1.1560 o          1 L61      -0.544000
     10 C10          2.4030     0.2250    -0.0580 ca         1 L61      -0.106300
     11 C15          3.0840     0.5380    -1.2530 ca         1 L61      -0.096500
     12 C14          4.0880     1.5210    -1.2650 ca         1 L61      -0.109000
     13 C13          4.4200     2.2030    -0.0820 ca         1 L61      -0.100000
     14 C12          3.7440     1.9020     1.1120 ca         1 L61      -0.109000
     15 C11          2.7400     0.9180     1.1250 ca         1 L61      -0.096500
     16 C7          -4.4200     1.0670     0.2130 c3         1 L61      -0.067700
     17 C8          -4.0360     2.5110    -0.1930 c3         1 L61      -0.087600
     18 C9          -5.9000     0.7720    -0.1200 c3         1 L61      -0.087600
     19 HC2         -0.2710    -3.1130     1.4340 h4         1 L61      -0.011800
     20 H31C         1.4790    -1.5630     1.9580 hc         1 L61       0.069700
     21 H32C         2.6240    -2.3320     0.7930 hc         1 L61       0.069700
     22 H4           1.2820    -1.2910    -1.0650 h1         1 L61       0.086700
     23 H1          -0.0270     0.5880     0.7980 hn         1 L61       0.330500
     24 H61C        -3.5210     0.0880    -1.5130 h1         1 L61       0.051200
     25 H62C        -3.8280    -0.9980    -0.1370 h1         1 L61       0.051200
     26 H7          -4.3140     0.9890     1.3030 hc         1 L61       0.056700
     27 H15          2.8360     0.0190    -2.1770 ha         1 L61       0.114000
     28 H11          2.2230     0.7000     2.0560 ha         1 L61       0.114000
     29 H14          4.6090     1.7550    -2.1910 ha         1 L61       0.116000
     30 H13          5.1970     2.9640    -0.0920 ha         1 L61       0.116000
     31 H12          3.9980     2.4310     2.0280 ha         1 L61       0.116000
     32 H81C        -4.7070     3.2370     0.2820 hc         1 L61       0.037367
     33 H82C        -3.0120     2.7490     0.1190 hc         1 L61       0.037367
     34 H83C        -4.1040     2.6410    -1.2800 hc         1 L61       0.037367
     35 H91C        -6.1820    -0.2320     0.2190 hc         1 L61       0.037367
     36 H92C        -6.5610     1.4930     0.3750 hc         1 L61       0.037367
     37 H93C        -6.0770     0.8310    -1.2010 hc         1 L61       0.037367
@<TRIPOS>BOND
     1     1     2 2   
     2     2     3 1   
     3     2    19 1   
     4     3     4 1   
     5     3    20 1   
     6     3    21 1   
     7     4     5 1   
     8     4    10 1   
     9     4    22 1   
    10     5     6 1   
    11     5    23 1   
    12     6     7 1   
    13     6     9 2   
    14     7     8 1   
    15     8    16 1   
    16     8    24 1   
    17     8    25 1   
    18    10    11 ar  
    19    10    15 ar  
    20    11    12 ar  
    21    11    27 1   
    22    12    13 ar  
    23    12    29 1   
    24    13    14 ar  
    25    13    30 1   
    26    14    15 ar  
    27    14    31 1   
    28    15    28 1   
    29    16    17 1   
    30    16    18 1   
    31    16    26 1   
    32    17    32 1   
    33    17    33 1   
    34    17    34 1   
    35    18    35 1   
    36    18    36 1   
    37    18    37 1   
@<TRIPOS>SUBSTRUCTURE
     1 L61         1 TEMP              0 ****  ****    0 ROOT
