@<TRIPOS>MOLECULE
L62
   38    39     1     0     0
SMALL
abcg2


@<TRIPOS>ATOM
      1 O2           1.1680    -1.2140     1.0140 o          1 L62      -0.546000
      2 C5           0.9790    -0.4080     0.1230 c          1 L62       0.638100
      3 O3           1.9380     0.2760    -0.4970 os         1 L62      -0.461100
      4 C6           3.2980     0.0360    -0.1060 c5         1 L62       0.189300
      5 C7           4.2370     0.6230    -1.1800 c5         1 L62      -0.093900
      6 C8           5.1680     1.5950    -0.4420 c5         1 L62      -0.080400
      7 C9           5.1380     1.1080     1.0060 c5         1 L62      -0.080400
      8 C10          3.6750     0.7270     1.2060 c5         1 L62      -0.093900
      9 N1          -0.2350    -0.0990    -0.3720 ns         1 L62      -0.509900
     10 C4          -1.4510    -0.6760     0.1630 c3         1 L62       0.190000
     11 C3          -1.8360    -2.0060    -0.5180 c3         1 L62      -0.220400
     12 C2          -0.7590    -3.0490    -0.4410 c          1 L62       0.585900
     13 O1          -0.8410    -4.0630     0.2070 o          1 L62      -0.507100
     14 C11         -2.5920     0.3080     0.0540 ca         1 L62      -0.106300
     15 C12         -3.2980     0.6820     1.1920 ca         1 L62      -0.098000
     16 C13         -4.3650     1.5670     1.1040 ca         1 L62      -0.108500
     17 C14         -4.7340     2.0930    -0.1260 ca         1 L62      -0.100000
     18 C15         -4.0310     1.7280    -1.2670 ca         1 L62      -0.108500
     19 C16         -2.9710     0.8370    -1.1780 ca         1 L62      -0.098000
     20 H1          -0.2990     0.5650    -1.1280 hn         1 L62       0.329500
     21 H6           3.4510    -1.0420    -0.0220 h1         1 L62       0.065700
     22 H71C         4.8100    -0.1820    -1.6410 hc         1 L62       0.058450
     23 H72C         3.6760     1.1090    -1.9790 hc         1 L62       0.058450
     24 H101         3.0750     1.6350     1.3200 hc         1 L62       0.058450
     25 H102         3.4990     0.0980     2.0780 hc         1 L62       0.058450
     26 H81C         6.1720     1.6180    -0.8660 hc         1 L62       0.047200
     27 H82C         4.7720     2.6120    -0.4940 hc         1 L62       0.047200
     28 H91C         5.7780     0.2280     1.1210 hc         1 L62       0.047200
     29 H92C         5.4830     1.8560     1.7210 hc         1 L62       0.047200
     30 H4          -1.2820    -0.8780     1.2220 h1         1 L62       0.086700
     31 H31C        -2.7470    -2.3870    -0.0550 hc         1 L62       0.069700
     32 H32C        -2.0390    -1.8180    -1.5770 hc         1 L62       0.069700
     33 HXT          0.1320    -2.8490    -1.0600 h4         1 L62      -0.012800
     34 H12         -3.0120     0.2790     2.1560 ha         1 L62       0.114000
     35 H16         -2.4450     0.5550    -2.0840 ha         1 L62       0.114000
     36 H13         -4.9070     1.8440     1.9990 ha         1 L62       0.116000
     37 H14         -5.5640     2.7830    -0.1960 ha         1 L62       0.116000
     38 H15         -4.3110     2.1330    -2.2310 ha         1 L62       0.116000
@<TRIPOS>BOND
     1     1     2 2   
     2     2     3 1   
     3     2     9 1   
     4     3     4 1   
     5     4     5 1   
     6     4     8 1   
     7     4    21 1   
     8     5     6 1   
     9     5    22 1   
    10     5    23 1   
    11     6     7 1   
    12     6    26 1   
    13     6    27 1   
    14     7     8 1   
    15     7    28 1   
    16     7    29 1   
    17     8    24 1   
    18     8    25 1   
    19     9    10 1   
    20     9    20 1   
    21    10    11 1   
    22    10    14 1   
    23    10    30 1   
    24    11    12 1   
    25    11    31 1   
    26    11    32 1   
    27    12    13 2   
    28    12    33 1   
    29    14    15 ar  
    30    14    19 ar  
    31    15    16 ar  
    32    15    34 1   
    33    16    17 ar  
    34    16    36 1   
    35    17    18 ar  
    36    17    37 1   
    37    18    19 ar  
    38    18    38 1   
    39    19    35 1   
@<TRIPOS>SUBSTRUCTURE
     1 L62         1 TEMP              0 ****  ****    0 ROOT
