@<TRIPOS>MOLECULE
L62
   38    39     1     0     0
SMALL
No Charge or Current Charge


@<TRIPOS>ATOM
      1 O2           1.2410    -1.4970     1.0040 o          1 L62      -0.546000
      2 C5           1.0640    -0.6660     0.1280 c          1 L62       0.638100
      3 O3           2.0270     0.0300    -0.5460 os         1 L62      -0.461100
      4 C6           3.3850    -0.2130    -0.0930 c5         1 L62       0.189300
      5 C7           4.3310     0.4870    -1.1170 c5         1 L62      -0.093900
      6 C8           4.5780     1.8780    -0.4790 c5         1 L62      -0.080400
      7 C9           4.8390     1.4590     0.9860 c5         1 L62      -0.080400
      8 C10          3.6060     0.5550     1.2590 c5         1 L62      -0.093900
      9 N1          -0.1520    -0.3130    -0.3780 ns         1 L62      -0.509900
     10 C4          -1.4390    -0.8240     0.0830 c3         1 L62       0.190000
     11 C3          -1.8800    -2.0620    -0.7260 c3         1 L62      -0.220400
     12 C2          -0.9460    -3.2450    -0.4920 c          1 L62       0.585900
     13 O1          -1.0860    -4.0330     0.4360 o          1 L62      -0.507100
     14 C11         -2.4820     0.2920     0.0380 ca         1 L62      -0.106300
     15 C12         -3.0200     0.8020     1.2380 ca         1 L62      -0.098000
     16 C13         -3.9760     1.8320     1.2090 ca         1 L62      -0.108500
     17 C14         -4.4010     2.3640    -0.0190 ca         1 L62      -0.100000
     18 C15         -3.8670     1.8670    -1.2190 ca         1 L62      -0.108500
     19 C16         -2.9110     0.8370    -1.1920 ca         1 L62      -0.098000
     20 H1          -0.1400     0.3990    -1.0950 hn         1 L62       0.329500
     21 H6           3.5840    -1.2930    -0.0310 h1         1 L62       0.065700
     22 H71C         5.2690    -0.0700    -1.2190 hc         1 L62       0.058450
     23 H72C         3.8930     0.5590    -2.1190 hc         1 L62       0.058450
     24 H101         2.7340     1.1630     1.5280 hc         1 L62       0.058450
     25 H102         3.7830    -0.1320     2.0930 hc         1 L62       0.058450
     26 H81C         5.4330     2.3980    -0.9260 hc         1 L62       0.047200
     27 H82C         3.7030     2.5340    -0.5700 hc         1 L62       0.047200
     28 H91C         5.7800     0.9050     1.0890 hc         1 L62       0.047200
     29 H92C         4.8860     2.3160     1.6660 hc         1 L62       0.047200
     30 H4          -1.3270    -1.1330     1.1330 h1         1 L62       0.086700
     31 H31C        -2.8960    -2.3410    -0.4230 hc         1 L62       0.069700
     32 H32C        -1.8450    -1.8000    -1.7890 hc         1 L62       0.069700
     33 HXT         -0.1150    -3.3560    -1.2230 h4         1 L62      -0.012800
     34 H12         -2.6990     0.4000     2.1970 ha         1 L62       0.114000
     35 H16         -2.5040     0.4660    -2.1300 ha         1 L62       0.114000
     36 H13         -4.3870     2.2180     2.1400 ha         1 L62       0.116000
     37 H14         -5.1410     3.1620    -0.0400 ha         1 L62       0.116000
     38 H15         -4.1930     2.2800    -2.1710 ha         1 L62       0.116000
@<TRIPOS>BOND
     1     1     2 2   
     2     2     3 1   
     3     2     9 1   
     4     3     4 1   
     5     4     5 1   
     6     4     8 1   
     7     4    21 1   
     8     5     6 1   
     9     5    22 1   
    10     5    23 1   
    11     6     7 1   
    12     6    26 1   
    13     6    27 1   
    14     7     8 1   
    15     7    28 1   
    16     7    29 1   
    17     8    24 1   
    18     8    25 1   
    19     9    10 1   
    20     9    20 1   
    21    10    11 1   
    22    10    14 1   
    23    10    30 1   
    24    11    12 1   
    25    11    31 1   
    26    11    32 1   
    27    12    13 2   
    28    12    33 1   
    29    14    15 ar  
    30    14    19 ar  
    31    15    16 ar  
    32    15    34 1   
    33    16    17 ar  
    34    16    36 1   
    35    17    18 ar  
    36    17    37 1   
    37    18    19 ar  
    38    18    38 1   
    39    19    35 1   
@<TRIPOS>SUBSTRUCTURE
     1 L62         1 TEMP              0 ****  ****    0 ROOT
