@<TRIPOS>MOLECULE
L63
   41    42     1     0     0
SMALL
No Charge or Current Charge


@<TRIPOS>ATOM
      1 O2           3.6330    -1.9420     0.8700 o          1 L63      -0.580100
      2 C15          4.1450    -1.1020     0.1380 c          1 L63       0.590100
      3 N2           5.3250    -1.3510    -0.5600 ns         1 L63      -0.381400
      4 O3           6.1550    -2.4930    -0.2330 oh         1 L63      -0.418100
      5 C14          3.4970     0.2890    -0.1140 c3         1 L63      -0.015300
      6 C16          4.0250     1.3660     0.8870 c3         1 L63       0.175300
      7 O4           3.5790     2.6600     0.4700 oh         1 L63      -0.648000
      8 C17          5.5620     1.4290     1.0320 c3         1 L63      -0.096100
      9 N1           2.0140     0.1460    -0.0280 ns         1 L63      -0.508900
     10 C1           1.0850     1.0320    -0.5260 c          1 L63       0.617700
     11 O1           1.4430     2.0700    -1.0630 o          1 L63      -0.592100
     12 C2          -0.3750     0.6640    -0.3630 ca         1 L63      -0.155600
     13 C7          -1.3690     1.5370    -0.8570 ca         1 L63      -0.069000
     14 C6          -2.7330     1.2270    -0.7220 ca         1 L63      -0.111500
     15 C5          -3.1560     0.0330    -0.0920 cp         1 L63      -0.003000
     16 C4          -2.1540    -0.8380     0.4000 ca         1 L63      -0.111500
     17 C3          -0.7880    -0.5330     0.2700 ca         1 L63      -0.069000
     18 C8          -4.6110    -0.2980     0.0510 cp         1 L63      -0.046000
     19 C13         -5.0700    -1.6380    -0.0290 ca         1 L63      -0.095000
     20 C12         -6.4350    -1.9470     0.1030 ca         1 L63      -0.111000
     21 C11         -7.3710    -0.9240     0.3200 ca         1 L63      -0.102000
     22 C10         -6.9410     0.4100     0.4030 ca         1 L63      -0.111000
     23 C9          -5.5760     0.7190     0.2690 ca         1 L63      -0.095000
     24 H13          5.7820    -0.5930    -1.0660 hn         1 L63       0.347500
     25 H14          6.3110    -2.9260    -1.1060 ho         1 L63       0.445000
     26 H1           3.7650     0.5860    -1.1370 h1         1 L63       0.101700
     27 H2           3.6100     1.1350     1.8780 h1         1 L63       0.045700
     28 H18          2.7820     2.5060    -0.1020 ho         1 L63       0.450000
     29 H17          6.0430     1.5910     0.0600 hc         1 L63       0.050700
     30 H16          5.8480     2.2540     1.6940 hc         1 L63       0.050700
     31 H15          5.9570     0.5060     1.4720 hc         1 L63       0.050700
     32 H3           1.6490    -0.6910     0.4120 hn         1 L63       0.331500
     33 H7          -1.0880     2.4650    -1.3520 ha         1 L63       0.124000
     34 H6          -3.4690     1.9170    -1.1260 ha         1 L63       0.121000
     35 H5          -2.4380    -1.7590     0.9030 ha         1 L63       0.121000
     36 H4          -0.0660    -1.2400     0.6710 ha         1 L63       0.124000
     37 H12         -4.3650    -2.4450    -0.2100 ha         1 L63       0.114500
     38 H11         -6.7670    -2.9810     0.0350 ha         1 L63       0.115000
     39 H10         -8.4270    -1.1630     0.4230 ha         1 L63       0.115000
     40 H9          -7.6640     1.2050     0.5740 ha         1 L63       0.115000
     41 H8          -5.2630     1.7570     0.3510 ha         1 L63       0.114500
@<TRIPOS>BOND
     1     1     2 2   
     2     2     3 1   
     3     2     5 1   
     4     3     4 1   
     5     3    24 1   
     6     4    25 1   
     7     5     6 1   
     8     5     9 1   
     9     5    26 1   
    10     6     7 1   
    11     6     8 1   
    12     6    27 1   
    13     7    28 1   
    14     8    29 1   
    15     8    30 1   
    16     8    31 1   
    17     9    10 1   
    18     9    32 1   
    19    10    11 2   
    20    10    12 1   
    21    12    13 ar  
    22    12    17 ar  
    23    13    14 ar  
    24    13    33 1   
    25    14    15 ar  
    26    14    34 1   
    27    15    16 ar  
    28    15    18 1   
    29    16    17 ar  
    30    16    35 1   
    31    17    36 1   
    32    18    19 ar  
    33    18    23 ar  
    34    19    20 ar  
    35    19    37 1   
    36    20    21 ar  
    37    20    38 1   
    38    21    22 ar  
    39    21    39 1   
    40    22    23 ar  
    41    22    40 1   
    42    23    41 1   
@<TRIPOS>SUBSTRUCTURE
     1 L63         1 TEMP              0 ****  ****    0 ROOT
