@<TRIPOS>MOLECULE
L63
   41    42     1     0     0
SMALL
bcc


@<TRIPOS>ATOM
      1 O2           3.8410    -1.9440     0.2560 o          1 L63      -0.580100
      2 C15          4.0930    -0.8950    -0.3100 c          1 L63       0.657100
      3 N2           4.9230    -0.7770    -1.3540 ns         1 L63      -0.448400
      4 O3           5.6740    -1.8350    -1.7580 oh         1 L63      -0.379100
      5 C14          3.4630     0.4190     0.1290 c3         1 L63      -0.015300
      6 C16          4.0160     0.8480     1.5030 c3         1 L63       0.152100
      7 O4           3.3730     2.0240     1.9290 oh         1 L63      -0.585800
      8 C17          5.5050     1.1250     1.4410 c3         1 L63      -0.096100
      9 N1           2.0310     0.2420     0.1930 ns         1 L63      -0.575900
     10 C1           1.1610     0.9480    -0.5640 c          1 L63       0.684700
     11 O1           1.5120     1.8140    -1.3490 o          1 L63      -0.592100
     12 C2          -0.2820     0.6060    -0.3860 ca         1 L63      -0.155600
     13 C7          -1.1680     0.9510    -1.4040 ca         1 L63      -0.087000
     14 C6          -2.5160     0.6640    -1.2930 ca         1 L63      -0.129500
     15 C5          -3.0270     0.0400    -0.1530 cp         1 L63      -0.003000
     16 C4          -2.1380    -0.2850     0.8720 ca         1 L63      -0.129500
     17 C3          -0.7860    -0.0090     0.7580 ca         1 L63      -0.087000
     18 C8          -4.4660    -0.2630    -0.0330 cp         1 L63      -0.046000
     19 C13         -4.9000    -1.4330     0.5940 ca         1 L63      -0.113000
     20 C12         -6.2530    -1.7180     0.7040 ca         1 L63      -0.129000
     21 C11         -7.1970    -0.8380     0.1920 ca         1 L63      -0.120000
     22 C10         -6.7770     0.3300    -0.4330 ca         1 L63      -0.129000
     23 C9          -5.4240     0.6130    -0.5450 ca         1 L63      -0.113000
     24 H13          5.1670     0.1120    -1.7660 hn         1 L63       0.347500
     25 H14          5.1780    -2.2650    -2.4680 ho         1 L63       0.406000
     26 H1           3.6670     1.2160    -0.5900 h1         1 L63       0.101700
     27 H2           3.8350     0.0280     2.2120 h1         1 L63       0.045700
     28 H18          2.4440     1.8250     2.0810 ho         1 L63       0.411000
     29 H17          5.7360     1.8890     0.6970 hc         1 L63       0.050700
     30 H16          5.8690     1.4680     2.4100 hc         1 L63       0.050700
     31 H15          6.0650     0.2260     1.1850 hc         1 L63       0.050700
     32 H3           1.7020    -0.5740     0.6860 hn         1 L63       0.331500
     33 H7          -0.7990     1.4310    -2.3000 ha         1 L63       0.142000
     34 H6          -3.1750     0.9150    -2.1150 ha         1 L63       0.139000
     35 H5          -2.5050    -0.7370     1.7850 ha         1 L63       0.139000
     36 H4          -0.1420    -0.2540     1.5930 ha         1 L63       0.142000
     37 H12         -4.1750    -2.1390     0.9820 ha         1 L63       0.132500
     38 H11         -6.5700    -2.6340     1.1850 ha         1 L63       0.133000
     39 H10         -8.2520    -1.0610     0.2780 ha         1 L63       0.133000
     40 H9          -7.5050     1.0270    -0.8280 ha         1 L63       0.133000
     41 H8          -5.1130     1.5370    -1.0160 ha         1 L63       0.132500
@<TRIPOS>BOND
     1     1     2 2   
     2     2     3 1   
     3     2     5 1   
     4     3     4 1   
     5     3    24 1   
     6     4    25 1   
     7     5     6 1   
     8     5     9 1   
     9     5    26 1   
    10     6     7 1   
    11     6     8 1   
    12     6    27 1   
    13     7    28 1   
    14     8    29 1   
    15     8    30 1   
    16     8    31 1   
    17     9    10 1   
    18     9    32 1   
    19    10    11 2   
    20    10    12 1   
    21    12    13 ar  
    22    12    17 ar  
    23    13    14 ar  
    24    13    33 1   
    25    14    15 ar  
    26    14    34 1   
    27    15    16 ar  
    28    15    18 1   
    29    16    17 ar  
    30    16    35 1   
    31    17    36 1   
    32    18    19 ar  
    33    18    23 ar  
    34    19    20 ar  
    35    19    37 1   
    36    20    21 ar  
    37    20    38 1   
    38    21    22 ar  
    39    21    39 1   
    40    22    23 ar  
    41    22    40 1   
    42    23    41 1   
@<TRIPOS>SUBSTRUCTURE
     1 L63         1 TEMP              0 ****  ****    0 ROOT
