@<TRIPOS>MOLECULE
L64
   77    83     1     0     0
SMALL
No Charge or Current Charge


@<TRIPOS>ATOM
      1 C1          -8.6210    -4.0890     1.8610 ca         1 L64      -0.172000
      2 N1         -10.2690    -2.5730     0.9450 nb         1 L64      -0.667000
      3 O1          -7.4880    -1.7060    -2.0700 o          1 L64      -0.585100
      4 C2          -7.6490    -3.6280     0.9590 ca         1 L64      -0.049000
      5 N2          -5.6770    -2.0490    -0.7010 n          1 L64      -0.404800
      6 O2           7.2630    -0.6730     0.1330 o          1 L64      -0.592100
      7 C3          -8.0080    -2.6050     0.0540 ca         1 L64      -0.199600
      8 N3          -2.9670     1.3020    -0.3250 na         1 L64      -0.026100
      9 O3           0.7340     7.6660     0.3550 os         1 L64      -0.439000
     10 C4          -9.3310    -2.1290     0.0730 ca         1 L64       0.379900
     11 N4          -3.7260     2.4780    -0.3940 nc         1 L64      -0.526100
     12 C5          -9.9100    -3.5350     1.8240 ca         1 L64       0.350900
     13 N5           0.8580     2.7450    -0.1210 nb         1 L64      -0.323000
     14 C6          -7.0650    -2.0560    -0.9760 c          1 L64       0.621700
     15 N6          -0.5220     0.7850    -0.1900 nb         1 L64      -0.246000
     16 C7          -5.1390    -1.7500     0.6580 c6         1 L64       0.097000
     17 N7           5.3720    -2.0020     0.0320 ns         1 L64      -0.161000
     18 C8          -4.5580    -0.3190     0.7360 c6         1 L64      -0.114900
     19 N8           7.4460    -2.9760     0.1120 ns         1 L64      -0.161000
     20 C9          -3.5000    -0.0840    -0.3700 c6         1 L64       0.111300
     21 N9          11.5800    -3.9770     0.2830 nb         1 L64      -0.680000
     22 C10         -4.1030    -0.4010    -1.7580 c6         1 L64      -0.114900
     23 N10         -0.0280     4.9230    -0.1370 nh         1 L64      -0.769300
     24 C11         -4.6770    -1.8350    -1.7830 c6         1 L64       0.097000
     25 C12         -1.6090     1.5760    -0.2350 ca         1 L64       0.165500
     26 C13         -1.4920     2.9300    -0.2200 ca         1 L64      -0.385900
     27 C14         -2.8210     3.4640    -0.3290 cd         1 L64       0.387800
     28 C15         -0.2350     3.5300    -0.1580 ca         1 L64       0.477900
     29 C16          0.6830     1.4020    -0.1350 cp         1 L64       0.283500
     30 C17          1.9150     0.5330    -0.0900 cp         1 L64      -0.178500
     31 C18          1.8260    -0.8860    -0.1120 ca         1 L64      -0.035500
     32 C19          2.9770    -1.6910    -0.0700 ca         1 L64      -0.167500
     33 C20          4.2580    -1.1190    -0.0060 ca         1 L64       0.010000
     34 C21          4.3690     0.2860     0.0160 ca         1 L64      -0.167500
     35 C22          3.2200     1.0950    -0.0260 ca         1 L64      -0.035500
     36 C23          6.7410    -1.7810     0.0960 c          1 L64       0.672100
     37 C24          8.8370    -3.2610     0.1700 ca         1 L64       0.033000
     38 C25          9.2450    -4.6050     0.1700 ca         1 L64      -0.211000
     39 C26         10.6120    -4.9190     0.2270 ca         1 L64       0.358900
     40 C27         11.1940    -2.6810     0.2830 ca         1 L64       0.358900
     41 C28          9.8490    -2.2820     0.2280 ca         1 L64      -0.211000
     42 C29          1.0680     5.5780    -0.9300 c6         1 L64       0.183300
     43 C30          1.7330     6.7500    -0.1510 c6         1 L64       0.137100
     44 C31         -0.1940     7.0280     1.2650 c6         1 L64       0.137100
     45 C32         -0.9580     5.8690     0.5600 c6         1 L64       0.183300
     46 H1          -8.3860    -4.8720     2.5770 ha         1 L64       0.127000
     47 H2          -6.6540    -4.0680     0.9560 ha         1 L64       0.124000
     48 H4          -9.6570    -1.3540    -0.6200 h4         1 L64       0.034100
     49 H5         -10.6810    -3.8780     2.5130 h4         1 L64       0.022100
     50 H7          -5.9190    -1.8400     1.4260 h1         1 L64       0.060450
     51 H7A         -4.3540    -2.4810     0.9010 h1         1 L64       0.060450
     52 HN7          5.1120    -2.9790     0.0080 hn         1 L64       0.148000
     53 H8          -5.3760     0.4080     0.6340 hc         1 L64       0.068700
     54 H8A         -4.1120    -0.1520     1.7260 hc         1 L64       0.068700
     55 HN8          6.8640    -3.8020     0.0760 hn         1 L64       0.150000
     56 H9          -2.6670    -0.7800    -0.1930 h1         1 L64       0.081700
     57 H10         -4.9010     0.3150    -1.9970 hc         1 L64       0.068700
     58 H10A        -3.3360    -0.2940    -2.5370 hc         1 L64       0.068700
     59 H11         -3.8580    -2.5570    -1.6520 h1         1 L64       0.060450
     60 H11A        -5.1220    -2.0390    -2.7680 h1         1 L64       0.060450
     61 H14         -3.1640     4.4890    -0.3810 h4         1 L64       0.046800
     62 H18          0.8570    -1.3780    -0.1610 ha         1 L64       0.134000
     63 H19          2.8660    -2.7730    -0.0880 ha         1 L64       0.128500
     64 H21          5.3340     0.7780     0.0650 ha         1 L64       0.128500
     65 H22          3.3530     2.1750    -0.0060 ha         1 L64       0.134000
     66 H25          8.5160    -5.4090     0.1270 ha         1 L64       0.137000
     67 H26         10.9440    -5.9560     0.2280 h4         1 L64       0.019600
     68 H27         11.9900    -1.9390     0.3280 h4         1 L64       0.019600
     69 H28          9.6280    -1.2210     0.2330 ha         1 L64       0.137000
     70 H29          1.8530     4.8580    -1.2020 h1         1 L64       0.066200
     71 H29A         0.6590     5.9680    -1.8730 h1         1 L64       0.066200
     72 H30          2.4200     7.2950    -0.8130 h1         1 L64       0.056950
     73 H30A         2.3170     6.3520     0.6910 h1         1 L64       0.056950
     74 H31          0.3610     6.6360     2.1290 h1         1 L64       0.056950
     75 H31A        -0.9100     7.7760     1.6340 h1         1 L64       0.056950
     76 H32         -1.6660     6.3000    -0.1620 h1         1 L64       0.066200
     77 H32A        -1.5480     5.3380     1.3220 h1         1 L64       0.066200
@<TRIPOS>BOND
     1     1     4 ar  
     2     1    12 ar  
     3     1    46 1   
     4     2    10 ar  
     5     2    12 ar  
     6     3    14 2   
     7     4     7 ar  
     8     4    47 1   
     9     5    14 1   
    10     5    16 1   
    11     5    24 1   
    12     6    36 2   
    13     7    10 ar  
    14     7    14 1   
    15     8    11 1   
    16     8    20 1   
    17     8    25 1   
    18     9    43 1   
    19     9    44 1   
    20    10    48 1   
    21    11    27 2   
    22    12    49 1   
    23    13    28 ar  
    24    13    29 ar  
    25    15    25 ar  
    26    15    29 ar  
    27    16    18 1   
    28    16    50 1   
    29    16    51 1   
    30    17    33 1   
    31    17    36 1   
    32    17    52 1   
    33    18    20 1   
    34    18    53 1   
    35    18    54 1   
    36    19    36 1   
    37    19    37 1   
    38    19    55 1   
    39    20    22 1   
    40    20    56 1   
    41    21    39 ar  
    42    21    40 ar  
    43    22    24 1   
    44    22    57 1   
    45    22    58 1   
    46    23    28 1   
    47    23    42 1   
    48    23    45 1   
    49    24    59 1   
    50    24    60 1   
    51    25    26 ar  
    52    26    27 1   
    53    26    28 ar  
    54    27    61 1   
    55    29    30 1   
    56    30    31 ar  
    57    30    35 ar  
    58    31    32 ar  
    59    31    62 1   
    60    32    33 ar  
    61    32    63 1   
    62    33    34 ar  
    63    34    35 ar  
    64    34    64 1   
    65    35    65 1   
    66    37    38 ar  
    67    37    41 ar  
    68    38    39 ar  
    69    38    66 1   
    70    39    67 1   
    71    40    41 ar  
    72    40    68 1   
    73    41    69 1   
    74    42    43 1   
    75    42    70 1   
    76    42    71 1   
    77    43    72 1   
    78    43    73 1   
    79    44    45 1   
    80    44    74 1   
    81    44    75 1   
    82    45    76 1   
    83    45    77 1   
@<TRIPOS>SUBSTRUCTURE
     1 L64         1 TEMP              0 ****  ****    0 ROOT
