@<TRIPOS>MOLECULE
L64
   77    83     1     0     0
SMALL
abcg2


@<TRIPOS>ATOM
      1 C1          -8.5190    -3.8420     1.9460 ca         1 L64      -0.172000
      2 N1          -9.7270    -1.8250     1.5200 nb         1 L64      -0.667000
      3 O1          -7.5230    -1.8320    -2.0600 o          1 L64      -0.585100
      4 C2          -7.6280    -3.5460     0.9290 ca         1 L64      -0.049000
      5 N2          -5.6290    -2.0140    -0.8290 n          1 L64      -0.404800
      6 O2           6.9660    -0.7450    -0.2630 o          1 L64      -0.592100
      7 C3          -7.8060    -2.3730     0.2030 ca         1 L64      -0.199600
      8 N3          -2.8510     1.1510    -0.5580 na         1 L64      -0.026100
      9 O3           0.7480     7.3800     0.6900 os         1 L64      -0.439000
     10 C4          -8.8830    -1.5570     0.5340 ca         1 L64       0.379900
     11 N4          -3.6320     2.2380    -0.6430 nc         1 L64      -0.526100
     12 C5          -9.5470    -2.9480     2.2070 ca         1 L64       0.350900
     13 N5           0.8230     2.5670    -0.0950 nb         1 L64      -0.323000
     14 C6          -6.9680    -2.0340    -0.9880 c          1 L64       0.621700
     15 N6          -0.5400     0.6380    -0.2820 nb         1 L64      -0.246000
     16 C7          -4.9440    -1.8540     0.4450 c6         1 L64       0.097000
     17 N7           5.1940    -2.1100     0.1970 ns         1 L64      -0.161000
     18 C8          -4.3260    -0.4640     0.5530 c6         1 L64      -0.114900
     19 N8           7.3050    -2.9550     0.2090 ns         1 L64      -0.161000
     20 C9          -3.4180    -0.1790    -0.6380 c6         1 L64       0.111300
     21 N9          11.4590    -3.4770    -0.0260 nb         1 L64      -0.680000
     22 C10         -4.1630    -0.3940    -1.9520 c6         1 L64      -0.114900
     23 N10          0.0960     4.7330    -0.0580 nh         1 L64      -0.769300
     24 C11         -4.7620    -1.7940    -1.9760 c6         1 L64       0.097000
     25 C12         -1.5600     1.4870    -0.3780 ca         1 L64       0.165500
     26 C13         -1.5020     2.8890    -0.3350 ca         1 L64      -0.385900
     27 C14         -2.8550     3.2820    -0.5180 cd         1 L64       0.387800
     28 C15         -0.1940     3.4250    -0.1620 ca         1 L64       0.477900
     29 C16          0.6240     1.2490    -0.1510 cp         1 L64       0.283500
     30 C17          1.8270     0.3980    -0.0590 cp         1 L64      -0.178500
     31 C18          1.7250    -0.9930    -0.1010 ca         1 L64      -0.035500
     32 C19          2.8500    -1.7890    -0.0240 ca         1 L64      -0.167500
     33 C20          4.1230    -1.2240     0.0990 ca         1 L64       0.010000
     34 C21          4.2360     0.1670     0.1520 ca         1 L64      -0.167500
     35 C22          3.0980     0.9530     0.0720 ca         1 L64      -0.035500
     36 C23          6.5230    -1.8400     0.0230 c          1 L64       0.672100
     37 C24          8.6810    -3.0570     0.1110 ca         1 L64       0.033000
     38 C25          9.2600    -4.2770     0.4760 ca         1 L64      -0.211000
     39 C26         10.6290    -4.4300     0.3900 ca         1 L64       0.358900
     40 C27         10.9010    -2.3240    -0.3740 ca         1 L64       0.358900
     41 C28          9.5430    -2.0510    -0.3310 ca         1 L64      -0.211000
     42 C29          1.4690     5.2150    -0.1170 c6         1 L64       0.183300
     43 C30          1.6770     6.3370     0.8810 c6         1 L64       0.137100
     44 C31         -0.5650     6.9000     0.8440 c6         1 L64       0.137100
     45 C32         -0.8930     5.7890    -0.1410 c6         1 L64       0.183300
     46 H1          -8.4230    -4.7480     2.5280 ha         1 L64       0.127000
     47 H2          -6.8160    -4.2240     0.6990 ha         1 L64       0.124000
     48 H4          -9.0600    -0.6400    -0.0180 h4         1 L64       0.034100
     49 H5         -10.2570    -3.1490     3.0010 h4         1 L64       0.022100
     50 H7          -5.6310    -2.0050     1.2720 h1         1 L64       0.060450
     51 H7A         -4.1680    -2.6200     0.5250 h1         1 L64       0.060450
     52 HN7          4.9280    -3.0740     0.3230 hn         1 L64       0.148000
     53 H8          -5.1220     0.2850     0.5990 hc         1 L64       0.068700
     54 H8A         -3.7580    -0.4020     1.4840 hc         1 L64       0.068700
     55 HN8          6.8440    -3.8030     0.5060 hn         1 L64       0.150000
     56 H9          -2.5650    -0.8630    -0.6040 h1         1 L64       0.081700
     57 H10         -4.9560     0.3500    -2.0610 hc         1 L64       0.068700
     58 H10A        -3.4790    -0.2780    -2.7950 hc         1 L64       0.068700
     59 H11         -3.9610    -2.5390    -1.9370 h1         1 L64       0.060450
     60 H11A        -5.3200    -1.9590    -2.8930 h1         1 L64       0.060450
     61 H14         -3.2930     4.2650    -0.5750 h4         1 L64       0.046800
     62 H18          0.7540    -1.4590    -0.2020 ha         1 L64       0.134000
     63 H19          2.7420    -2.8660    -0.0630 ha         1 L64       0.128500
     64 H21          5.1940     0.6470     0.2650 ha         1 L64       0.128500
     65 H22          3.2050     2.0280     0.1160 ha         1 L64       0.134000
     66 H25          8.6490    -5.0990     0.8270 ha         1 L64       0.137000
     67 H26         11.0750    -5.3750     0.6760 h4         1 L64       0.019600
     68 H27         11.5760    -1.5460    -0.7170 h4         1 L64       0.019600
     69 H28          9.1920    -1.0820    -0.6400 ha         1 L64       0.137000
     70 H29          2.1520     4.3990     0.1000 h1         1 L64       0.066200
     71 H29A         1.6820     5.5710    -1.1310 h1         1 L64       0.066200
     72 H30          2.6760     6.7550     0.7540 h1         1 L64       0.056950
     73 H30A         1.6030     5.9370     1.9030 h1         1 L64       0.056950
     74 H31         -0.7230     6.5290     1.8660 h1         1 L64       0.056950
     75 H31A        -1.2470     7.7350     0.6790 h1         1 L64       0.056950
     76 H32         -0.9410     6.1840    -1.1620 h1         1 L64       0.066200
     77 H32A        -1.8760     5.4150     0.1220 h1         1 L64       0.066200
@<TRIPOS>BOND
     1     1     4 ar  
     2     1    12 ar  
     3     1    46 1   
     4     2    10 ar  
     5     2    12 ar  
     6     3    14 2   
     7     4     7 ar  
     8     4    47 1   
     9     5    14 1   
    10     5    16 1   
    11     5    24 1   
    12     6    36 2   
    13     7    10 ar  
    14     7    14 1   
    15     8    11 1   
    16     8    20 1   
    17     8    25 1   
    18     9    43 1   
    19     9    44 1   
    20    10    48 1   
    21    11    27 2   
    22    12    49 1   
    23    13    28 ar  
    24    13    29 ar  
    25    15    25 ar  
    26    15    29 ar  
    27    16    18 1   
    28    16    50 1   
    29    16    51 1   
    30    17    33 1   
    31    17    36 1   
    32    17    52 1   
    33    18    20 1   
    34    18    53 1   
    35    18    54 1   
    36    19    36 1   
    37    19    37 1   
    38    19    55 1   
    39    20    22 1   
    40    20    56 1   
    41    21    39 ar  
    42    21    40 ar  
    43    22    24 1   
    44    22    57 1   
    45    22    58 1   
    46    23    28 1   
    47    23    42 1   
    48    23    45 1   
    49    24    59 1   
    50    24    60 1   
    51    25    26 ar  
    52    26    27 1   
    53    26    28 ar  
    54    27    61 1   
    55    29    30 1   
    56    30    31 ar  
    57    30    35 ar  
    58    31    32 ar  
    59    31    62 1   
    60    32    33 ar  
    61    32    63 1   
    62    33    34 ar  
    63    34    35 ar  
    64    34    64 1   
    65    35    65 1   
    66    37    38 ar  
    67    37    41 ar  
    68    38    39 ar  
    69    38    66 1   
    70    39    67 1   
    71    40    41 ar  
    72    40    68 1   
    73    41    69 1   
    74    42    43 1   
    75    42    70 1   
    76    42    71 1   
    77    43    72 1   
    78    43    73 1   
    79    44    45 1   
    80    44    74 1   
    81    44    75 1   
    82    45    76 1   
    83    45    77 1   
@<TRIPOS>SUBSTRUCTURE
     1 L64         1 TEMP              0 ****  ****    0 ROOT
