@<TRIPOS>MOLECULE
L66
   50    54     1     0     0
SMALL
No Charge or Current Charge


@<TRIPOS>ATOM
      1 O2          -5.9830    -0.4570    -1.2620 o          1 L66      -0.562000
      2 C17         -4.9230    -0.0650    -0.8030 c          1 L66       0.628000
      3 N4          -4.6160     1.2650    -0.8150 ns         1 L66      -0.473500
      4 C16         -3.4900     1.8760    -0.3650 c          1 L66       0.646600
      5 O3          -3.3120     3.0780    -0.4460 o          1 L66      -0.545000
      6 N5          -3.9620    -0.9310    -0.2520 n          1 L66      -0.364300
      7 C18         -4.2300    -2.3880    -0.2440 c3         1 L66       0.101300
      8 C2          -2.7870    -0.4090     0.2410 cc         1 L66       0.476900
      9 C3          -2.5480     0.9310     0.2120 cd         1 L66      -0.384600
     10 N1          -1.7150    -1.1320     0.6970 nc         1 L66      -0.724000
     11 C1          -0.8760    -0.1780     1.0910 cd         1 L66       0.545000
     12 N2          -1.2770     1.0530     0.7230 na         1 L66       0.034500
     13 C4          -0.2930     1.9190     0.3220 cc         1 L66      -0.149000
     14 N3           0.4950    -0.1370     0.8830 na         1 L66      -0.063300
     15 C5           0.8760     1.1590     0.4400 cd         1 L66      -0.080000
     16 C10          2.2640     1.5390     0.0450 ca         1 L66       0.005000
     17 C11          2.5820     2.5960    -0.8600 ca         1 L66      -0.082300
     18 C40          1.5310     3.4080    -1.6120 c3         1 L66      -0.045800
     19 C12          3.9340     2.8890    -1.1430 ca         1 L66      -0.081000
     20 C13          4.9710     2.1540    -0.5530 ca         1 L66      -0.126000
     21 C15          3.3320     0.8110     0.6230 ca         1 L66      -0.175000
     22 C14          4.6680     1.1130     0.3270 ca         1 L66       0.133100
     23 O41          5.6790     0.4020     0.9040 oh         1 L66      -0.530100
     24 C32          1.0220    -1.2100     0.1420 ca         1 L66      -0.037200
     25 C33          0.9750    -1.2010    -1.2700 ca         1 L66      -0.052000
     26 C34          1.5010    -2.2760    -2.0040 ca         1 L66      -0.142000
     27 C35          2.0740    -3.3690    -1.3380 ca         1 L66      -0.056000
     28 C36          2.1210    -3.3920     0.0660 ca         1 L66      -0.198000
     29 C37          1.5940    -2.3150     0.8140 ca         1 L66       0.161100
     30 O38          1.6260    -2.3020     2.1980 os         1 L66      -0.327100
     31 C39          2.1750    -3.3850     2.9680 c3         1 L66       0.147900
     32 H1          -5.3110     1.8710    -1.2200 hn         1 L66       0.343500
     33 H2          -5.2830    -2.5810    -0.0030 h1         1 L66       0.057367
     34 H3          -4.0050    -2.8090    -1.2320 h1         1 L66       0.057367
     35 H4          -3.6110    -2.8940     0.5080 h1         1 L66       0.057367
     36 H5          -0.5050     2.9180    -0.0310 h4         1 L66       0.190000
     37 H6           1.0830     4.1710    -0.9650 hc         1 L66       0.046033
     38 H7           1.9650     3.9340    -2.4700 hc         1 L66       0.046033
     39 H8           0.7380     2.7660    -2.0140 hc         1 L66       0.046033
     40 H9           4.1870     3.6890    -1.8360 ha         1 L66       0.118000
     41 H10          6.0070     2.3900    -0.7830 ha         1 L66       0.132000
     42 H11          3.1230     0.0200     1.3350 ha         1 L66       0.125000
     43 H12          5.2850    -0.2820     1.4860 ho         1 L66       0.466000
     44 H13          0.5280    -0.3620    -1.7990 ha         1 L66       0.131000
     45 H14          1.4620    -2.2620    -3.0910 ha         1 L66       0.125000
     46 H15          2.4810    -4.2010    -1.9100 ha         1 L66       0.118000
     47 H16          2.5700    -4.2520     0.5540 ha         1 L66       0.124000
     48 H17          2.0940    -3.1680     4.0410 h1         1 L66       0.045700
     49 H18          1.6340    -4.3190     2.7690 h1         1 L66       0.045700
     50 H19          3.2360    -3.5340     2.7320 h1         1 L66       0.045700
@<TRIPOS>BOND
     1     1     2 2   
     2     2     3 1   
     3     2     6 1   
     4     3     4 1   
     5     3    32 1   
     6     4     5 2   
     7     4     9 1   
     8     6     7 1   
     9     6     8 1   
    10     7    33 1   
    11     7    34 1   
    12     7    35 1   
    13     8     9 2   
    14     8    10 1   
    15     9    12 1   
    16    10    11 2   
    17    11    12 1   
    18    11    14 1   
    19    12    13 1   
    20    13    15 2   
    21    13    36 1   
    22    14    15 1   
    23    14    24 1   
    24    15    16 1   
    25    16    17 ar  
    26    16    21 ar  
    27    17    18 1   
    28    17    19 ar  
    29    18    37 1   
    30    18    38 1   
    31    18    39 1   
    32    19    20 ar  
    33    19    40 1   
    34    20    22 ar  
    35    20    41 1   
    36    21    22 ar  
    37    21    42 1   
    38    22    23 1   
    39    23    43 1   
    40    24    25 ar  
    41    24    29 ar  
    42    25    26 ar  
    43    25    44 1   
    44    26    27 ar  
    45    26    45 1   
    46    27    28 ar  
    47    27    46 1   
    48    28    29 ar  
    49    28    47 1   
    50    29    30 1   
    51    30    31 1   
    52    31    48 1   
    53    31    49 1   
    54    31    50 1   
@<TRIPOS>SUBSTRUCTURE
     1 L66         1 TEMP              0 ****  ****    0 ROOT
