@<TRIPOS>MOLECULE
L66
   50    54     1     0     0
SMALL
abcg2


@<TRIPOS>ATOM
      1 O2          -6.3770    -0.5280     0.4250 o          1 L66      -0.562000
      2 C17         -5.2270    -0.1360     0.3750 c          1 L66       0.628000
      3 N4          -4.9200     1.1940     0.5740 ns         1 L66      -0.473500
      4 C16         -3.6800     1.8320     0.5450 c          1 L66       0.646600
      5 O3          -3.5730     3.0320     0.7390 o          1 L66      -0.545000
      6 N5          -4.1630    -0.9700     0.1250 n          1 L66      -0.364300
      7 C18         -4.3610    -2.3920    -0.0990 c3         1 L66       0.101300
      8 C2          -2.9000    -0.4520     0.0640 cc         1 L66       0.476900
      9 C3          -2.6590     0.8980     0.2700 cd         1 L66      -0.384600
     10 N1          -1.7910    -1.1640    -0.1900 nc         1 L66      -0.724000
     11 C1          -0.8480    -0.2330    -0.1340 cd         1 L66       0.545000
     12 N2          -1.2900     1.0120     0.1320 na         1 L66       0.034500
     13 C4          -0.2310     1.8930     0.1380 cc         1 L66      -0.149000
     14 N3           0.4870    -0.1730    -0.2970 na         1 L66      -0.063300
     15 C5           0.8780     1.1570    -0.1250 cd         1 L66      -0.080000
     16 C10          2.2880     1.5560    -0.1910 ca         1 L66       0.005000
     17 C11          2.7380     2.4550    -1.1630 ca         1 L66      -0.082300
     18 C40          1.8190     3.0670    -2.1800 c3         1 L66      -0.045800
     19 C12          4.0960     2.7660    -1.1640 ca         1 L66      -0.081000
     20 C13          4.9820     2.2160    -0.2540 ca         1 L66      -0.126000
     21 C15          3.1700     0.9940     0.7300 ca         1 L66      -0.175000
     22 C14          4.5190     1.3200     0.7060 ca         1 L66       0.133100
     23 O41          5.4110     0.8090     1.5790 oh         1 L66      -0.530100
     24 C32          1.3200    -1.2700    -0.6200 ca         1 L66      -0.037200
     25 C33          1.9250    -1.3410    -1.8610 ca         1 L66      -0.052000
     26 C34          2.7510    -2.4120    -2.1710 ca         1 L66      -0.142000
     27 C35          2.9470    -3.4080    -1.2280 ca         1 L66      -0.056000
     28 C36          2.3430    -3.3450     0.0220 ca         1 L66      -0.198000
     29 C37          1.5280    -2.2630     0.3430 ca         1 L66       0.161100
     30 O38          0.9190    -2.0800     1.5210 os         1 L66      -0.327100
     31 C39          1.0360    -3.0860     2.5110 c3         1 L66       0.147900
     32 H1          -5.7200     1.7850     0.7610 hn         1 L66       0.343500
     33 H2          -5.3870    -2.6520     0.1300 h1         1 L66       0.057367
     34 H3          -4.1490    -2.6500    -1.1360 h1         1 L66       0.057367
     35 H4          -3.6990    -2.9620     0.5480 h1         1 L66       0.057367
     36 H5          -0.3350     2.9430     0.3420 h4         1 L66       0.190000
     37 H6           1.1310     3.7850    -1.7320 hc         1 L66       0.046033
     38 H7           2.3890     3.5950    -2.9430 hc         1 L66       0.046033
     39 H8           1.2090     2.3160    -2.6840 hc         1 L66       0.046033
     40 H9           4.4780     3.4550    -1.9080 ha         1 L66       0.118000
     41 H10          6.0320     2.4790    -0.2860 ha         1 L66       0.132000
     42 H11          2.7910     0.3090     1.4810 ha         1 L66       0.125000
     43 H12          4.9720     0.2200     2.2020 ho         1 L66       0.466000
     44 H13          1.7470    -0.5540    -2.5840 ha         1 L66       0.131000
     45 H14          3.2270    -2.4680    -3.1400 ha         1 L66       0.125000
     46 H15          3.5810    -4.2540    -1.4590 ha         1 L66       0.118000
     47 H16          2.5220    -4.1370     0.7350 ha         1 L66       0.124000
     48 H17          0.4430    -2.7520     3.3570 h1         1 L66       0.045700
     49 H18          0.6460    -4.0440     2.1600 h1         1 L66       0.045700
     50 H19          2.0710    -3.2190     2.8360 h1         1 L66       0.045700
@<TRIPOS>BOND
     1     1     2 2   
     2     2     3 1   
     3     2     6 1   
     4     3     4 1   
     5     3    32 1   
     6     4     5 2   
     7     4     9 1   
     8     6     7 1   
     9     6     8 1   
    10     7    33 1   
    11     7    34 1   
    12     7    35 1   
    13     8     9 2   
    14     8    10 1   
    15     9    12 1   
    16    10    11 2   
    17    11    12 1   
    18    11    14 1   
    19    12    13 1   
    20    13    15 2   
    21    13    36 1   
    22    14    15 1   
    23    14    24 1   
    24    15    16 1   
    25    16    17 ar  
    26    16    21 ar  
    27    17    18 1   
    28    17    19 ar  
    29    18    37 1   
    30    18    38 1   
    31    18    39 1   
    32    19    20 ar  
    33    19    40 1   
    34    20    22 ar  
    35    20    41 1   
    36    21    22 ar  
    37    21    42 1   
    38    22    23 1   
    39    23    43 1   
    40    24    25 ar  
    41    24    29 ar  
    42    25    26 ar  
    43    25    44 1   
    44    26    27 ar  
    45    26    45 1   
    46    27    28 ar  
    47    27    46 1   
    48    28    29 ar  
    49    28    47 1   
    50    29    30 1   
    51    30    31 1   
    52    31    48 1   
    53    31    49 1   
    54    31    50 1   
@<TRIPOS>SUBSTRUCTURE
     1 L66         1 TEMP              0 ****  ****    0 ROOT
