@<TRIPOS>MOLECULE
L67
   37    38     1     0     0
SMALL
No Charge or Current Charge


@<TRIPOS>ATOM
      1 C13          2.1500     2.5080     0.9730 c5         1 L67      -0.066400
      2 C15          3.8340     0.7800     1.2840 c5         1 L67      -0.069400
      3 C17          4.0260    -1.9280    -0.3810 c          1 L67       0.717000
      4 C01         -1.4290     0.3330    -1.5830 ca         1 L67      -0.068000
      5 C02         -2.7900     0.0370    -1.3930 ca         1 L67      -0.135500
      6 C03         -3.4460     0.4200    -0.2090 ca         1 L67       0.029700
      7 C04         -2.7220     1.1090     0.7810 ca         1 L67      -0.135500
      8 C05         -1.3610     1.4060     0.5960 ca         1 L67      -0.068000
      9 C06         -0.6960     1.0080    -0.5860 ca         1 L67      -0.202600
     10 C08         -5.0700    -1.2600     0.6760 c          1 L67       0.725000
     11 C09          0.7630     1.3260    -0.8330 c          1 L67       0.594700
     12 C11          1.6330     1.1240     0.4450 c5         1 L67      -0.169700
     13 C12          2.9320     0.3250     0.1090 c5         1 L67      -0.028700
     14 C14          3.6830     2.3170     1.1680 c5         1 L67      -0.084400
     15 C16          2.7150    -1.2080    -0.0150 c3         1 L67      -0.198400
     16 O10          1.1690     1.7080    -1.9250 o          1 L67      -0.540100
     17 O18         -5.0990    -2.2570    -0.0300 o          1 L67      -0.727000
     18 O19         -5.0400    -1.2990     1.8970 o          1 L67      -0.727000
     19 O20          4.3230    -2.0170    -1.5630 o          1 L67      -0.750000
     20 O21          4.7290    -2.3530     0.5230 o          1 L67      -0.750000
     21 H1           1.9440     3.3330     0.2800 hc         1 L67       0.027700
     22 H2           1.6600     2.7660     1.9190 hc         1 L67       0.027700
     23 H3           3.4780     0.4050     2.2520 hc         1 L67       0.044200
     24 H4           4.8760     0.4620     1.1680 hc         1 L67       0.044200
     25 H5          -0.9420     0.0290    -2.5080 ha         1 L67       0.105500
     26 H6          -3.3360    -0.4910    -2.1710 ha         1 L67       0.102000
     27 H7          -3.2160     1.4210     1.6980 ha         1 L67       0.102000
     28 H8          -0.8350     1.9590     1.3710 ha         1 L67       0.105500
     29 H9          -5.3370     0.8960     0.6320 hc         1 L67       0.027700
     30 H10         -5.3870     0.0830    -1.0020 hc         1 L67       0.027700
     31 H11          1.0570     0.6200     1.2280 hc         1 L67       0.061700
     32 H13          3.3670     0.6590    -0.8440 hc         1 L67       0.078700
     33 H15          4.2410     2.7030     0.3060 hc         1 L67       0.023200
     34 H16          4.0590     2.8410     2.0540 hc         1 L67       0.023200
     35 H17          1.9860    -1.3410    -0.8240 hc         1 L67       0.024200
     36 H18          2.3490    -1.5590     0.9580 hc         1 L67       0.024200
     37 C07         -4.9250     0.1070    -0.0080 c3         1 L67      -0.195100
@<TRIPOS>BOND
     1     1    12 1   
     2     1    14 1   
     3     1    21 1   
     4     1    22 1   
     5     2    13 1   
     6     2    14 1   
     7     2    23 1   
     8     2    24 1   
     9     3    15 1   
    10     3    19 1   
    11     3    20 1   
    12     4     5 ar  
    13     4     9 ar  
    14     4    25 1   
    15     5     6 ar  
    16     5    26 1   
    17     6     7 ar  
    18     6    37 1   
    19     7     8 ar  
    20     7    27 1   
    21     8     9 ar  
    22     8    28 1   
    23     9    11 1   
    24    10    17 1   
    25    10    18 1   
    26    10    37 1   
    27    11    12 1   
    28    11    16 2   
    29    12    13 1   
    30    12    31 1   
    31    13    15 1   
    32    13    32 1   
    33    14    33 1   
    34    14    34 1   
    35    15    35 1   
    36    15    36 1   
    37    29    37 1   
    38    30    37 1   
@<TRIPOS>SUBSTRUCTURE
     1 L67         1 TEMP              0 ****  ****    0 ROOT
