@<TRIPOS>MOLECULE
L67
   37    38     1     0     0
SMALL
abcg2


@<TRIPOS>ATOM
      1 C13          1.7240     2.1350     0.8010 c5         1 L67      -0.066400
      2 C15          3.9400     1.1860     0.9750 c5         1 L67      -0.069400
      3 C17          4.8670    -1.6580    -0.1570 c          1 L67       0.717000
      4 C01         -1.6370     0.3660    -1.5530 ca         1 L67      -0.068000
      5 C02         -2.9990     0.4310    -1.3290 ca         1 L67      -0.135500
      6 C03         -3.5120     0.6270    -0.0460 ca         1 L67       0.029700
      7 C04         -2.6070     0.7570     1.0040 ca         1 L67      -0.135500
      8 C05         -1.2400     0.6890     0.7880 ca         1 L67      -0.068000
      9 C06         -0.7310     0.4920    -0.4960 ca         1 L67      -0.202600
     10 C08         -5.6180    -0.7240     0.4560 c          1 L67       0.725000
     11 C09          0.7290     0.4170    -0.7790 c          1 L67       0.594700
     12 C11          1.6950     0.6390     0.3600 c5         1 L67      -0.169700
     13 C12          3.1510     0.2640     0.0490 c5         1 L67      -0.028700
     14 C14          3.2120     2.5170     0.8340 c5         1 L67      -0.084400
     15 C16          3.4410    -1.2170     0.2190 c3         1 L67      -0.198400
     16 O10          1.1160     0.2060    -1.9120 o          1 L67      -0.540100
     17 O18         -4.8690    -1.7130     0.4060 o          1 L67      -0.727000
     18 O19         -6.8410    -0.7120     0.6910 o          1 L67      -0.727000
     19 O20          5.4630    -0.9940    -1.0290 o          1 L67      -0.750000
     20 O21          5.3030    -2.6770     0.4180 o          1 L67      -0.750000
     21 H1           1.1540     2.7810     0.1320 hc         1 L67       0.027700
     22 H2           1.2740     2.2410     1.7890 hc         1 L67       0.027700
     23 H3           3.8760     0.8260     2.0090 hc         1 L67       0.044200
     24 H4           4.9960     1.2400     0.7100 hc         1 L67       0.044200
     25 H5          -1.2680     0.2170    -2.5590 ha         1 L67       0.105500
     26 H6          -3.6810     0.3340    -2.1650 ha         1 L67       0.102000
     27 H7          -2.9760     0.9150     2.0110 ha         1 L67       0.102000
     28 H8          -0.5780     0.7900     1.6370 ha         1 L67       0.105500
     29 H9          -5.2090     1.3150     1.0500 hc         1 L67       0.027700
     30 H10         -5.4950     1.1190    -0.6620 hc         1 L67       0.027700
     31 H11          1.3610     0.0370     1.2120 hc         1 L67       0.061700
     32 H13          3.3780     0.5540    -0.9800 hc         1 L67       0.078700
     33 H15          3.4990     2.9870    -0.1100 hc         1 L67       0.023200
     34 H16          3.4380     3.2290     1.6290 hc         1 L67       0.023200
     35 H17          2.7490    -1.7950    -0.4070 hc         1 L67       0.024200
     36 H18          3.2240    -1.5200     1.2500 hc         1 L67       0.024200
     37 C07         -4.9840     0.6710     0.1950 c3         1 L67      -0.195100
@<TRIPOS>BOND
     1     1    12 1   
     2     1    14 1   
     3     1    21 1   
     4     1    22 1   
     5     2    13 1   
     6     2    14 1   
     7     2    23 1   
     8     2    24 1   
     9     3    15 1   
    10     3    19 1   
    11     3    20 1   
    12     4     5 ar  
    13     4     9 ar  
    14     4    25 1   
    15     5     6 ar  
    16     5    26 1   
    17     6     7 ar  
    18     6    37 1   
    19     7     8 ar  
    20     7    27 1   
    21     8     9 ar  
    22     8    28 1   
    23     9    11 1   
    24    10    17 1   
    25    10    18 1   
    26    10    37 1   
    27    11    12 1   
    28    11    16 2   
    29    12    13 1   
    30    12    31 1   
    31    13    15 1   
    32    13    32 1   
    33    14    33 1   
    34    14    34 1   
    35    15    35 1   
    36    15    36 1   
    37    29    37 1   
    38    30    37 1   
@<TRIPOS>SUBSTRUCTURE
     1 L67         1 TEMP              0 ****  ****    0 ROOT
