@<TRIPOS>MOLECULE
L68
   47    50     1     0     0
SMALL
No Charge or Current Charge


@<TRIPOS>ATOM
      1 C10          3.7850     1.9650    -0.2990 ca         1 L68      -0.100600
      2 C13          3.8220     3.4580    -0.5670 c          1 L68       0.711600
      3 C15          0.0970     1.8160     0.4130 ce         1 L68      -0.377200
      4 C21         -2.7650     0.2930    -1.4540 ca         1 L68       0.235000
      5 C22         -4.1570     0.1320    -1.3910 ca         1 L68      -0.191500
      6 C24         -4.0820     0.4350     1.0050 ca         1 L68      -0.191500
      7 C28         -6.2950     0.0280    -0.1210 cc         1 L68      -0.156000
      8 C01          4.8870    -3.1520     0.1950 cc         1 L68      -0.180000
      9 C04          2.7880    -3.0930     0.9330 cd         1 L68       0.246900
     10 C05          3.8420    -2.2960     0.4210 cd         1 L68      -0.108000
     11 C07          3.8240    -0.8410     0.1700 ca         1 L68      -0.032000
     12 C08          2.6790    -0.0750     0.4650 ca         1 L68      -0.102000
     13 C09          2.6350     1.3140     0.2210 ca         1 L68      -0.061800
     14 C11          4.9340     1.1970    -0.5850 ca         1 L68      -0.090000
     15 C12          4.9520    -0.1890    -0.3600 ca         1 L68      -0.122000
     16 C14          1.4270     2.0780     0.6020 cf         1 L68       0.055800
     17 C16         -0.5260     0.7050    -0.3700 c          1 L68       0.600900
     18 C19         -2.0130     0.5390    -0.2920 ca         1 L68      -0.234600
     19 C23         -4.8370     0.2020    -0.1610 ca         1 L68       0.068000
     20 C25         -2.6900     0.6000     0.9400 ca         1 L68       0.235000
     21 C29         -7.0270     0.0850     1.0310 cd         1 L68      -0.152000
     22 C32         -7.2060    -0.2140    -1.1640 cc         1 L68       0.260900
     23 F27         -2.0100     0.7700     2.0950 f          1 L68      -0.160500
     24 N02          4.4050    -4.3970     0.5850 na         1 L68       0.118800
     25 N03          3.1050    -4.3690     1.0420 nc         1 L68      -0.551800
     26 N30         -8.3500    -0.1280     0.6170 na         1 L68      -0.005200
     27 N31         -8.4580    -0.3150    -0.7630 nd         1 L68      -0.530800
     28 O17          4.8300     4.0730    -0.2510 o          1 L68      -0.713500
     29 O18          2.8670     3.9810    -1.1250 o          1 L68      -0.713500
     30 O20          0.1430    -0.0550    -1.0540 o          1 L68      -0.493100
     31 H1          -0.6120     2.5220     0.8400 ha         1 L68       0.173000
     32 H3          -4.7020    -0.0450    -2.3120 ha         1 L68       0.126000
     33 H4          -4.5590     0.4830     1.9780 ha         1 L68       0.126000
     34 H5           5.8870    -2.9980    -0.1890 h4         1 L68       0.149000
     35 H6           1.7950    -2.7780     1.2290 h4         1 L68       0.036100
     36 H7           5.2110    -6.0870     1.5530 h1         1 L68       0.046367
     37 H8           4.6210    -6.3750    -0.1130 h1         1 L68       0.046367
     38 H9           6.1550    -5.4950     0.1540 h1         1 L68       0.046367
     39 H10          1.8110    -0.5550     0.9070 ha         1 L68       0.094000
     40 H11          5.8200     1.6800    -0.9910 ha         1 L68       0.131000
     41 H12          5.8540    -0.7460    -0.5970 ha         1 L68       0.085000
     42 H13          1.6610     2.9870     1.1610 ha         1 L68       0.189000
     43 H15         -6.7520     0.2500     2.0660 h4         1 L68       0.157000
     44 H16         -6.9890    -0.3200    -2.2190 h4         1 L68       0.041100
     45 H17         -9.1710    -0.1520     1.2220 hn         1 L68       0.368000
     46 C06          5.1440    -5.6680     0.5420 c3         1 L68       0.080900
     47 F26         -2.1660     0.2420    -2.6650 f          1 L68      -0.160500
@<TRIPOS>BOND
     1     1     2 1   
     2     1    13 ar  
     3     1    14 ar  
     4     2    28 1   
     5     2    29 1   
     6     3    16 2   
     7     3    17 1   
     8     3    31 1   
     9     4     5 ar  
    10     4    18 ar  
    11     4    47 1   
    12     5    19 ar  
    13     5    32 1   
    14     6    19 ar  
    15     6    20 ar  
    16     6    33 1   
    17     7    19 1   
    18     7    21 2   
    19     7    22 1   
    20     8    10 2   
    21     8    24 1   
    22     8    34 1   
    23     9    10 1   
    24     9    25 2   
    25     9    35 1   
    26    10    11 1   
    27    11    12 ar  
    28    11    15 ar  
    29    12    13 ar  
    30    12    39 1   
    31    13    16 1   
    32    14    15 ar  
    33    14    40 1   
    34    15    41 1   
    35    16    42 1   
    36    17    18 1   
    37    17    30 2   
    38    18    20 ar  
    39    20    23 1   
    40    21    26 1   
    41    21    43 1   
    42    22    27 2   
    43    22    44 1   
    44    24    25 1   
    45    24    46 1   
    46    26    27 1   
    47    26    45 1   
    48    36    46 1   
    49    37    46 1   
    50    38    46 1   
@<TRIPOS>SUBSTRUCTURE
     1 L68         1 TEMP              0 ****  ****    0 ROOT
