@<TRIPOS>MOLECULE
L68
   47    50     1     0     0
SMALL
abcg2


@<TRIPOS>ATOM
      1 C10          3.7320     1.9620    -0.4270 ca         1 L68      -0.100600
      2 C13          3.8120     3.4200    -0.8360 c          1 L68       0.711600
      3 C15          0.2070     2.1360     0.4350 ce         1 L68      -0.377200
      4 C21         -2.6410     0.9170    -1.5380 ca         1 L68       0.235000
      5 C22         -3.9720     0.5700    -1.4580 ca         1 L68      -0.191500
      6 C24         -3.6440     0.0260     0.8600 ca         1 L68      -0.191500
      7 C28         -5.8930    -0.2690    -0.1450 cc         1 L68      -0.156000
      8 C01          4.3300    -3.2200     0.2080 cc         1 L68      -0.180000
      9 C04          2.6430    -2.8090     1.5450 cd         1 L68       0.246900
     10 C05          3.5350    -2.1780     0.6530 cd         1 L68      -0.108000
     11 C07          3.6100    -0.7690     0.2800 ca         1 L68      -0.032000
     12 C08          2.5770     0.1090     0.6020 ca         1 L68      -0.102000
     13 C09          2.6200     1.4560     0.2510 ca         1 L68      -0.061800
     14 C11          4.7630     1.0830    -0.7490 ca         1 L68      -0.090000
     15 C12          4.7120    -0.2550    -0.4070 ca         1 L68      -0.122000
     16 C14          1.5090     2.3130     0.7060 cf         1 L68       0.055800
     17 C16         -0.3220     1.2250    -0.5820 c          1 L68       0.600900
     18 C19         -1.7700     0.8640    -0.4560 ca         1 L68      -0.234600
     19 C23         -4.4920     0.1130    -0.2460 ca         1 L68       0.068000
     20 C25         -2.3280     0.4060     0.7310 ca         1 L68       0.235000
     21 C29         -6.6170    -0.5620     0.9970 cd         1 L68      -0.152000
     22 C32         -6.8350    -0.4310    -1.1870 cc         1 L68       0.260900
     23 F27         -1.5300     0.2930     1.7990 f          1 L68      -0.160500
     24 N02          3.8980    -4.3350     0.8160 na         1 L68       0.118800
     25 N03          2.8750    -4.1040     1.6320 nc         1 L68      -0.551800
     26 N30         -7.8560    -0.8580     0.5950 na         1 L68      -0.005200
     27 N31         -8.0140    -0.7880    -0.7230 nd         1 L68      -0.530800
     28 O17          4.8540     3.7960    -1.4020 o          1 L68      -0.713500
     29 O18          2.8150     4.1200    -0.5660 o          1 L68      -0.713500
     30 O20          0.3250     0.7930    -1.5140 o          1 L68      -0.493100
     31 H1          -0.5160     2.7370     0.9730 ha         1 L68       0.173000
     32 H3          -4.5960     0.6680    -2.3360 ha         1 L68       0.126000
     33 H4          -3.9960    -0.3450     1.8140 ha         1 L68       0.126000
     34 H5           5.1470    -3.2430    -0.4940 h4         1 L68       0.149000
     35 H6           1.8530    -2.3640     2.1310 h4         1 L68       0.036100
     36 H7           4.7310    -6.0740     1.6130 h1         1 L68       0.046367
     37 H8           3.6390    -6.3250     0.2380 h1         1 L68       0.046367
     38 H9           5.2550    -5.6530    -0.0240 h1         1 L68       0.046367
     39 H10          1.7090    -0.2580     1.1370 ha         1 L68       0.094000
     40 H11          5.6260     1.4640    -1.2790 ha         1 L68       0.131000
     41 H12          5.5410    -0.9010    -0.6690 ha         1 L68       0.085000
     42 H13          1.7560     3.0640     1.4470 ha         1 L68       0.189000
     43 H15         -6.3450    -0.5700     2.0400 h4         1 L68       0.157000
     44 H16         -6.6860    -0.3080    -2.2490 h4         1 L68       0.041100
     45 H17         -8.6340    -1.1150     1.1810 hn         1 L68       0.368000
     46 C06          4.4070    -5.6760     0.6540 c3         1 L68       0.080900
     47 F26         -2.1800     1.3650    -2.7080 f          1 L68      -0.160500
@<TRIPOS>BOND
     1     1     2 1   
     2     1    13 ar  
     3     1    14 ar  
     4     2    28 1   
     5     2    29 1   
     6     3    16 2   
     7     3    17 1   
     8     3    31 1   
     9     4     5 ar  
    10     4    18 ar  
    11     4    47 1   
    12     5    19 ar  
    13     5    32 1   
    14     6    19 ar  
    15     6    20 ar  
    16     6    33 1   
    17     7    19 1   
    18     7    21 2   
    19     7    22 1   
    20     8    10 2   
    21     8    24 1   
    22     8    34 1   
    23     9    10 1   
    24     9    25 2   
    25     9    35 1   
    26    10    11 1   
    27    11    12 ar  
    28    11    15 ar  
    29    12    13 ar  
    30    12    39 1   
    31    13    16 1   
    32    14    15 ar  
    33    14    40 1   
    34    15    41 1   
    35    16    42 1   
    36    17    18 1   
    37    17    30 2   
    38    18    20 ar  
    39    20    23 1   
    40    21    26 1   
    41    21    43 1   
    42    22    27 2   
    43    22    44 1   
    44    24    25 1   
    45    24    46 1   
    46    26    27 1   
    47    26    45 1   
    48    36    46 1   
    49    37    46 1   
    50    38    46 1   
@<TRIPOS>SUBSTRUCTURE
     1 L68         1 TEMP              0 ****  ****    0 ROOT
