@<TRIPOS>MOLECULE
L69
   26    26     1     0     0
SMALL
No Charge or Current Charge


@<TRIPOS>ATOM
      1 O5          -2.4640    -2.1840     0.2190 o          1 L69      -0.946500
      2 P1          -1.0780    -1.6310     0.1860 p5         1 L69       1.335000
      3 O4          -0.4570    -1.7390     1.5420 o          1 L69      -0.946500
      4 O6          -0.2840    -2.5210    -0.7130 o          1 L69      -0.946500
      5 C6          -0.9200     0.1060    -0.4400 c3         1 L69      -0.403000
      6 C7          -0.8500     0.2670    -1.9870 c3         1 L69      -0.040100
      7 P           -2.4710     0.8860     0.1860 p5         1 L69       1.335000
      8 O3          -2.7000     0.6710     1.6470 o          1 L69      -0.946500
      9 O2          -2.3330     2.3610    -0.0280 o          1 L69      -0.946500
     10 O1          -3.6710     0.4700    -0.6040 o          1 L69      -0.946500
     11 O            0.1690     0.8780     0.1840 os         1 L69      -0.208100
     12 C5           1.5440     0.7160     0.0470 ca         1 L69       0.230100
     13 C            2.3540     1.6610     0.7090 ca         1 L69      -0.186000
     14 C4           2.1710    -0.3040    -0.7030 ca         1 L69      -0.186000
     15 C3           3.5750    -0.3700    -0.7880 ca         1 L69      -0.147500
     16 C2           4.3650     0.5810    -0.1240 ca         1 L69      -0.092900
     17 O7           5.7210     0.5140    -0.2090 oh         1 L69      -0.603100
     18 C1           3.7560     1.5970     0.6270 ca         1 L69      -0.147500
     19 H3          -1.7380    -0.1670    -2.4610 hc         1 L69      -0.007300
     20 H4          -0.8030     1.3260    -2.2670 hc         1 L69      -0.007300
     21 H5           0.0180    -0.2310    -2.4280 hc         1 L69      -0.007300
     22 H8           1.8820     2.4500     1.2880 ha         1 L69       0.159500
     23 H9           1.5910    -1.0530    -1.2220 ha         1 L69       0.159500
     24 H10          4.0400    -1.1610    -1.3700 ha         1 L69       0.045000
     25 H11          5.9620    -0.2560    -0.7700 ho         1 L69       0.406000
     26 H12          4.3630     2.3370     1.1440 ha         1 L69       0.045000
@<TRIPOS>BOND
     1     1     2 1   
     2     2     3 1   
     3     2     4 1   
     4     2     5 1   
     5     5     6 1   
     6     5     7 1   
     7     5    11 1   
     8     6    19 1   
     9     6    20 1   
    10     6    21 1   
    11     7     8 1   
    12     7     9 1   
    13     7    10 1   
    14    11    12 1   
    15    12    13 ar  
    16    12    14 ar  
    17    13    18 ar  
    18    13    22 1   
    19    14    15 ar  
    20    14    23 1   
    21    15    16 ar  
    22    15    24 1   
    23    16    17 1   
    24    16    18 ar  
    25    17    25 1   
    26    18    26 1   
@<TRIPOS>SUBSTRUCTURE
     1 L69         1 TEMP              0 ****  ****    0 ROOT
