@<TRIPOS>MOLECULE
L69
   26    26     1     0     0
SMALL
abcg2


@<TRIPOS>ATOM
      1 O5          -2.3840    -2.2130     0.0960 o          1 L69      -0.946500
      2 P1          -0.9210    -1.7620     0.0590 p5         1 L69       1.335000
      3 O4          -0.1940    -1.8780     1.4030 o          1 L69      -0.946500
      4 O6          -0.1610    -2.4670    -1.0930 o          1 L69      -0.946500
      5 C6          -0.9160     0.0840    -0.3730 c3         1 L69      -0.403000
      6 C7          -0.7760     0.3170    -1.8700 c3         1 L69      -0.040100
      7 P           -2.4520     1.0200     0.2060 p5         1 L69       1.335000
      8 O3          -2.6340     0.7010     1.6960 o          1 L69      -0.946500
      9 O2          -2.1040     2.5040    -0.0300 o          1 L69      -0.946500
     10 O1          -3.6090     0.5620    -0.6920 o          1 L69      -0.946500
     11 O            0.1360     0.7970     0.3370 os         1 L69      -0.208100
     12 C5           1.4440     0.6490     0.1200 ca         1 L69       0.230100
     13 C            2.2650     1.6710     0.6160 ca         1 L69      -0.186000
     14 C4           2.0640    -0.4180    -0.5360 ca         1 L69      -0.186000
     15 C3           3.4470    -0.4460    -0.6790 ca         1 L69      -0.147500
     16 C2           4.2520     0.5670    -0.1740 ca         1 L69      -0.092900
     17 O7           5.6090     0.5680    -0.2920 oh         1 L69      -0.603100
     18 C1           3.6440     1.6320     0.4820 ca         1 L69      -0.147500
     19 H3          -1.6090    -0.1630    -2.3800 hc         1 L69      -0.007300
     20 H4          -0.8240     1.3850    -2.1010 hc         1 L69      -0.007300
     21 H5           0.1430    -0.0860    -2.2960 hc         1 L69      -0.007300
     22 H8           1.8060     2.5140     1.1200 ha         1 L69       0.159500
     23 H9           1.4690    -1.2420    -0.9190 ha         1 L69       0.159500
     24 H10          3.9000    -1.2900    -1.1900 ha         1 L69       0.045000
     25 H11          5.8970    -0.2400    -0.7290 ho         1 L69       0.406000
     26 H12          4.2480     2.4370     0.8830 ha         1 L69       0.045000
@<TRIPOS>BOND
     1     1     2 1   
     2     2     3 1   
     3     2     4 1   
     4     2     5 1   
     5     5     6 1   
     6     5     7 1   
     7     5    11 1   
     8     6    19 1   
     9     6    20 1   
    10     6    21 1   
    11     7     8 1   
    12     7     9 1   
    13     7    10 1   
    14    11    12 1   
    15    12    13 ar  
    16    12    14 ar  
    17    13    18 ar  
    18    13    22 1   
    19    14    15 ar  
    20    14    23 1   
    21    15    16 ar  
    22    15    24 1   
    23    16    17 1   
    24    16    18 ar  
    25    17    25 1   
    26    18    26 1   
@<TRIPOS>SUBSTRUCTURE
     1 L69         1 TEMP              0 ****  ****    0 ROOT
