@<TRIPOS>MOLECULE
L6A
   36    38     1     0     0
SMALL
bcc


@<TRIPOS>ATOM
      1 C1          -0.1880    35.8520    27.7650 ca         1 L6A       0.705900
      2 C2          -0.7670    37.5830    26.4430 ca         1 L6A       0.462600
      3 C3           0.2720    37.2720    25.5470 ca         1 L6A      -0.323600
      4 C4           0.4400    38.0510    24.3930 ca         1 L6A      -0.064000
      5 C5          -0.3910    39.1120    24.1240 ca         1 L6A      -0.158600
      6 C6          -0.2780    39.8040    22.7980 c          1 L6A       0.684700
      7 C12         -3.9460    42.8550    24.5270 ca         1 L6A      -0.091000
      8 C13         -4.5130    41.6060    24.7700 ca         1 L6A      -0.086300
      9 C14         -6.0060    41.4220    24.8220 c3         1 L6A       0.185700
     10 O1          -6.5980    42.5190    25.4750 oh         1 L6A      -0.594800
     11 C            1.0880    36.1400    25.9010 ca         1 L6A       0.744200
     12 O           -1.2390    39.8900    22.0510 o          1 L6A      -0.579100
     13 C10         -1.7410    41.8860    24.5830 ca         1 L6A      -0.105000
     14 C11         -2.5670    42.9890    24.4400 ca         1 L6A      -0.132000
     15 C15         -3.6760    40.5080    24.9240 ca         1 L6A      -0.097000
     16 C7          -1.4260    39.4500    25.0340 cp         1 L6A       0.038000
     17 C8          -1.5930    38.6900    26.1660 ca         1 L6A      -0.184300
     18 C9          -2.2920    40.6300    24.8230 cp         1 L6A      -0.044000
     19 N1           0.8330    35.4500    27.0020 nb         1 L6A      -0.823000
     20 N2          -0.9920    36.8610    27.5710 nb         1 L6A      -0.740000
     21 N3           0.9440    40.2670    22.4990 nt         1 L6A      -0.679000
     22 H1          -0.3580    35.2580    28.6580 h5         1 L6A       0.046100
     23 H2           1.2130    37.8060    23.6740 ha         1 L6A       0.125000
     24 H3          -4.5760    43.7260    24.4060 ha         1 L6A       0.142000
     25 H4          -6.3800    41.3220    23.7940 h1         1 L6A       0.027700
     26 H5          -6.2330    40.4750    25.3260 h1         1 L6A       0.027700
     27 H6          -7.5440    42.4930    25.3060 ho         1 L6A       0.405000
     28 H7           2.6590    34.9510    25.4440 hn         1 L6A       0.446300
     29 H8           2.4050    36.2180    24.3130 hn         1 L6A       0.446300
     30 H9          -0.6660    42.0080    24.5260 ha         1 L6A       0.126000
     31 H10         -2.1330    43.9640    24.2620 ha         1 L6A       0.131000
     32 H11         -4.1090    39.5330    25.1170 ha         1 L6A       0.134000
     33 H12         -2.3600    38.9420    26.8870 ha         1 L6A       0.161000
     34 H13          1.1130    40.7200    21.6150 hn         1 L6A       0.314500
     35 H14          1.6920    40.2740    23.1720 hn         1 L6A       0.314500
     36 N            2.1160    35.7460    25.1500 nv         1 L6A      -0.966500
@<TRIPOS>BOND
     1     1    19 ar  
     2     1    20 ar  
     3     1    22 1   
     4     2     3 ar  
     5     2    17 ar  
     6     2    20 ar  
     7     3     4 ar  
     8     3    11 ar  
     9     4     5 ar  
    10     4    23 1   
    11     5     6 1   
    12     5    16 ar  
    13     6    12 2   
    14     6    21 1   
    15     7     8 ar  
    16     7    14 ar  
    17     7    24 1   
    18     8     9 1   
    19     8    15 ar  
    20     9    10 1   
    21     9    25 1   
    22     9    26 1   
    23    10    27 1   
    24    11    19 ar  
    25    11    36 1   
    26    13    14 ar  
    27    13    18 ar  
    28    13    30 1   
    29    14    31 1   
    30    15    18 ar  
    31    15    32 1   
    32    16    17 ar  
    33    16    18 1   
    34    17    33 1   
    35    21    34 1   
    36    21    35 1   
    37    28    36 1   
    38    29    36 1   
@<TRIPOS>SUBSTRUCTURE
     1 L6A         1 TEMP              0 ****  ****    0 ROOT
