@<TRIPOS>MOLECULE
L6A
   36    38     1     0     0
SMALL
No Charge or Current Charge


@<TRIPOS>ATOM
      1 C1          -0.1490    35.9070    27.8690 ca         1 L6A       0.179900
      2 C2          -0.7770    37.6420    26.4850 ca         1 L6A       0.069000
      3 C3           0.2540    37.2730    25.5890 ca         1 L6A      -0.193000
      4 C4           0.4380    37.9990    24.3920 ca         1 L6A      -0.046000
      5 C5          -0.4010    39.0910    24.0860 ca         1 L6A      -0.158600
      6 C6          -0.2550    39.8490    22.7850 c          1 L6A       0.617700
      7 C12         -3.9630    42.9710    24.4990 ca         1 L6A      -0.073000
      8 C13         -4.5430    41.6960    24.6440 ca         1 L6A      -0.086300
      9 C14         -6.0570    41.5350    24.6340 c3         1 L6A       0.208900
     10 O1          -6.5770    41.6450    25.9640 oh         1 L6A      -0.657000
     11 C            1.0510    36.1630    25.9480 ca         1 L6A       0.415900
     12 O           -1.1900    40.2980    22.1440 o          1 L6A      -0.579100
     13 C10         -1.7410    41.9900    24.6600 ca         1 L6A      -0.087000
     14 C11         -2.5660    43.1170    24.5090 ca         1 L6A      -0.114000
     15 C15         -3.7090    40.5700    24.7970 ca         1 L6A      -0.079000
     16 C7          -1.4280    39.4960    24.9900 cp         1 L6A       0.038000
     17 C8          -1.5940    38.7410    26.1750 ca         1 L6A      -0.101000
     18 C9          -2.2990    40.6960    24.7960 cp         1 L6A      -0.044000
     19 N1           0.8560    35.4790    27.0810 nb         1 L6A      -0.297000
     20 N2          -0.9690    36.9500    27.6280 nb         1 L6A      -0.214000
     21 N3           0.9950    39.9620    22.2850 nt         1 L6A      -0.612000
     22 H1          -0.3150    35.3570    28.7930 h5         1 L6A       0.046100
     23 H2           1.2060    37.6990    23.6840 ha         1 L6A       0.107000
     24 H3          -4.5950    43.8480    24.3830 ha         1 L6A       0.124000
     25 H4          -6.5000    42.3040    23.9880 h1         1 L6A       0.027700
     26 H5          -6.3150    40.5570    24.2040 h1         1 L6A       0.027700
     27 H6          -7.5510    41.5330    25.8960 ho         1 L6A       0.444000
     28 H7           2.7120    35.0220    25.6270 hn         1 L6A       0.501500
     29 H8           2.4950    36.3020    24.4920 hn         1 L6A       0.501500
     30 H9          -0.6610    42.1170    24.6780 ha         1 L6A       0.108000
     31 H10         -2.1220    44.1050    24.4030 ha         1 L6A       0.113000
     32 H11         -4.1550    39.5850    24.9130 ha         1 L6A       0.116000
     33 H12         -2.3680    39.0340    26.8800 ha         1 L6A       0.143000
     34 H13          1.1330    40.4420    21.4090 hn         1 L6A       0.314500
     35 H14          1.7810    39.6000    22.8030 hn         1 L6A       0.314500
     36 N            2.0830    35.6950    25.1950 nv         1 L6A      -1.076900
@<TRIPOS>BOND
     1     1    19 ar  
     2     1    20 ar  
     3     1    22 1   
     4     2     3 ar  
     5     2    17 ar  
     6     2    20 ar  
     7     3     4 ar  
     8     3    11 ar  
     9     4     5 ar  
    10     4    23 1   
    11     5     6 1   
    12     5    16 ar  
    13     6    12 2   
    14     6    21 1   
    15     7     8 ar  
    16     7    14 ar  
    17     7    24 1   
    18     8     9 1   
    19     8    15 ar  
    20     9    10 1   
    21     9    25 1   
    22     9    26 1   
    23    10    27 1   
    24    11    19 ar  
    25    11    36 1   
    26    13    14 ar  
    27    13    18 ar  
    28    13    30 1   
    29    14    31 1   
    30    15    18 ar  
    31    15    32 1   
    32    16    17 ar  
    33    16    18 1   
    34    17    33 1   
    35    21    34 1   
    36    21    35 1   
    37    28    36 1   
    38    29    36 1   
@<TRIPOS>SUBSTRUCTURE
     1 L6A         1 TEMP              0 ****  ****    0 ROOT
