@<TRIPOS>MOLECULE
L6B
   39    40     1     0     0
SMALL
bcc


@<TRIPOS>ATOM
      1 C01          4.9420     0.9450     0.3600 c6         1 L6B      -0.014200
      2 C02          5.9310    -0.1370     0.7750 c6         1 L6B      -0.078400
      3 C03          5.8230    -1.3370    -0.1550 c6         1 L6B      -0.069400
      4 C04          4.4440    -1.9760    -0.0480 c6         1 L6B      -0.055200
      5 C05          3.3540    -0.9530    -0.0700 cc         1 L6B       0.093400
      6 C06          3.5640     0.3880     0.1190 cd         1 L6B      -0.196200
      7 C08          0.9460    -0.6510    -0.3230 c          1 L6B       0.710700
      8 C09          1.1600     0.7630    -0.1470 cc         1 L6B      -0.311400
      9 C10          2.4370     1.2230     0.0660 cd         1 L6B       0.038000
     10 C11          0.0560     1.7570    -0.1860 c          1 L6B       0.697300
     11 C13         -2.3280     2.0230    -0.4540 c2         1 L6B       0.012600
     12 C14         -3.5620     1.5650    -0.6640 c2         1 L6B      -0.250200
     13 C15         -3.9650     0.1460    -0.8950 c3         1 L6B      -0.089200
     14 C16         -4.8700    -0.3860     0.1910 c          1 L6B       0.638100
     15 C18         -6.1920    -2.2320     0.8230 c3         1 L6B       0.129700
     16 N07          2.0950    -1.4040    -0.2730 ns         1 L6B      -0.413100
     17 N12         -1.1830     1.2470    -0.3860 ns         1 L6B      -0.488100
     18 O17         -5.3340    -1.5890    -0.1200 os         1 L6B      -0.426900
     19 O19         -0.1380    -1.2190    -0.5090 o          1 L6B      -0.668500
     20 O20          0.2690     2.9540    -0.0460 o          1 L6B      -0.607100
     21 O21         -5.1390     0.1900     1.2140 o          1 L6B      -0.530000
     22 H1           4.8870     1.7250     1.1220 hc         1 L6B       0.054700
     23 H2           5.2990     1.4330    -0.5520 hc         1 L6B       0.054700
     24 H3           6.9440     0.2680     0.7640 hc         1 L6B       0.049700
     25 H4           5.7270    -0.4530     1.8030 hc         1 L6B       0.049700
     26 H5           6.0020    -1.0190    -1.1870 hc         1 L6B       0.051700
     27 H6           6.5820    -2.0850     0.0790 hc         1 L6B       0.051700
     28 H7           4.2840    -2.6950    -0.8550 hc         1 L6B       0.063700
     29 H8           4.3630    -2.5420     0.8860 hc         1 L6B       0.063700
     30 H10          2.5790     2.2880     0.2030 ha         1 L6B       0.164000
     31 H11         -2.1630     3.0830    -0.3210 h4         1 L6B       0.160000
     32 H13         -4.3530     2.3030    -0.6880 ha         1 L6B       0.139000
     33 H15         -4.4910     0.0530    -1.8510 hc         1 L6B       0.074200
     34 H16         -3.1130    -0.5340    -0.9750 hc         1 L6B       0.074200
     35 H17         -5.6810    -2.4140     1.7680 h1         1 L6B       0.045700
     36 H18         -7.0920    -1.6470     1.0090 h1         1 L6B       0.045700
     37 H19         -6.4670    -3.1820     0.3760 h1         1 L6B       0.045700
     38 H20         -1.2300     0.2350    -0.4830 hn         1 L6B       0.358500
     39 H9           1.9650    -2.4000    -0.4030 hn         1 L6B       0.331500
@<TRIPOS>BOND
     1     1     2 1   
     2     1     6 1   
     3     1    22 1   
     4     1    23 1   
     5     2     3 1   
     6     2    24 1   
     7     2    25 1   
     8     3     4 1   
     9     3    26 1   
    10     3    27 1   
    11     4     5 1   
    12     4    28 1   
    13     4    29 1   
    14     5     6 2   
    15     5    16 1   
    16     6     9 1   
    17     7     8 1   
    18     7    16 1   
    19     7    19 2   
    20     8     9 2   
    21     8    10 1   
    22     9    30 1   
    23    10    17 1   
    24    10    20 2   
    25    11    12 2   
    26    11    17 1   
    27    11    31 1   
    28    12    13 1   
    29    12    32 1   
    30    13    14 1   
    31    13    33 1   
    32    13    34 1   
    33    14    18 1   
    34    14    21 2   
    35    15    18 1   
    36    15    35 1   
    37    15    36 1   
    38    15    37 1   
    39    16    39 1   
    40    17    38 1   
@<TRIPOS>SUBSTRUCTURE
     1 L6B         1 TEMP              0 ****  ****    0 ROOT
