@<TRIPOS>MOLECULE
L6B
   39    40     1     0     0
SMALL
No Charge or Current Charge


@<TRIPOS>ATOM
      1 C01          4.9920     1.0540     0.3810 c6         1 L6B      -0.014200
      2 C02          6.0210    -0.0180     0.8110 c6         1 L6B      -0.078400
      3 C03          5.9220    -1.2660    -0.0940 c6         1 L6B      -0.069400
      4 C04          4.5250    -1.9220     0.0270 c6         1 L6B      -0.055200
      5 C05          3.4170    -0.8920    -0.0380 cc         1 L6B       0.093400
      6 C06          3.6130     0.4650     0.1370 cd         1 L6B      -0.196200
      7 C08          1.0080    -0.6590    -0.3440 c          1 L6B       0.568200
      8 C09          1.1950     0.8020    -0.1660 cc         1 L6B      -0.311400
      9 C10          2.4630     1.3330     0.0660 cd         1 L6B      -0.012000
     10 C11          0.0520     1.7520    -0.2260 c          1 L6B       0.630300
     11 C13         -2.4210     1.8740    -0.5520 c2         1 L6B      -0.037400
     12 C14         -3.5900     1.2530    -0.7750 c2         1 L6B      -0.300200
     13 C15         -3.8180    -0.2460    -0.9720 c3         1 L6B      -0.089200
     14 C16         -4.5960    -0.8860     0.1900 c          1 L6B       0.589100
     15 C18         -6.7550    -1.7300     0.8530 c3         1 L6B       0.152900
     16 N07          2.1560    -1.3930    -0.2630 ns         1 L6B      -0.346100
     17 N12         -1.1900     1.2050    -0.4530 ns         1 L6B      -0.421100
     18 O17         -5.9030    -1.1360    -0.1440 os         1 L6B      -0.450100
     19 O19         -0.0560    -1.2210    -0.5510 o          1 L6B      -0.593000
     20 O20          0.1840     2.9600    -0.0840 o          1 L6B      -0.607100
     21 O21         -4.1020    -1.1330     1.2830 o          1 L6B      -0.481000
     22 H1           4.9490     1.8420     1.1460 hc         1 L6B       0.054700
     23 H2           5.3460     1.5430    -0.5380 hc         1 L6B       0.054700
     24 H3           7.0360     0.4000     0.7700 hc         1 L6B       0.049700
     25 H4           5.8420    -0.3060     1.8560 hc         1 L6B       0.049700
     26 H5           6.1080    -0.9790    -1.1390 hc         1 L6B       0.051700
     27 H6           6.7010    -1.9930     0.1740 hc         1 L6B       0.051700
     28 H7           4.4100    -2.6770    -0.7640 hc         1 L6B       0.063700
     29 H8           4.4650    -2.4660     0.9790 hc         1 L6B       0.063700
     30 H10          2.6020     2.4050     0.1960 ha         1 L6B       0.214000
     31 H11         -2.3510     2.9590    -0.4260 h4         1 L6B       0.210000
     32 H13         -4.5050     1.8480    -0.8350 ha         1 L6B       0.189000
     33 H15         -4.3870    -0.3920    -1.8980 hc         1 L6B       0.074200
     34 H16         -2.8640    -0.7760    -1.0630 hc         1 L6B       0.074200
     35 H17         -6.3690    -2.7100     1.1630 h1         1 L6B       0.045700
     36 H18         -6.8270    -1.0880     1.7400 h1         1 L6B       0.045700
     37 H19         -7.7670    -1.8740     0.4540 h1         1 L6B       0.045700
     38 H20         -1.1850     0.1930    -0.5520 hn         1 L6B       0.358500
     39 H9           2.0320    -2.3900    -0.3810 hn         1 L6B       0.331500
@<TRIPOS>BOND
     1     1     2 1   
     2     1     6 1   
     3     1    22 1   
     4     1    23 1   
     5     2     3 1   
     6     2    24 1   
     7     2    25 1   
     8     3     4 1   
     9     3    26 1   
    10     3    27 1   
    11     4     5 1   
    12     4    28 1   
    13     4    29 1   
    14     5     6 2   
    15     5    16 1   
    16     6     9 1   
    17     7     8 1   
    18     7    16 1   
    19     7    19 2   
    20     8     9 2   
    21     8    10 1   
    22     9    30 1   
    23    10    17 1   
    24    10    20 2   
    25    11    12 2   
    26    11    17 1   
    27    11    31 1   
    28    12    13 1   
    29    12    32 1   
    30    13    14 1   
    31    13    33 1   
    32    13    34 1   
    33    14    18 1   
    34    14    21 2   
    35    15    18 1   
    36    15    35 1   
    37    15    36 1   
    38    15    37 1   
    39    16    39 1   
    40    17    38 1   
@<TRIPOS>SUBSTRUCTURE
     1 L6B         1 TEMP              0 ****  ****    0 ROOT
