@<TRIPOS>MOLECULE
L6C
   35    36     1     0     0
SMALL
abcg2


@<TRIPOS>ATOM
      1 O1           0.5250    -3.8890    -0.2070 o          1 L6C      -0.503100
      2 C2           0.5860    -2.8780     0.4470 c          1 L6C       0.583900
      3 C3           1.8020    -2.0010     0.5330 c3         1 L6C      -0.220400
      4 C4           1.6280    -0.6480    -0.1840 c3         1 L6C       0.189000
      5 C12          2.9010     0.1620    -0.1090 ca         1 L6C      -0.109300
      6 C17          3.5570     0.5330    -1.2780 ca         1 L6C      -0.096000
      7 C16          4.7310     1.2720    -1.2270 ca         1 L6C      -0.109000
      8 C15          5.2580     1.6560    -0.0020 ca         1 L6C      -0.099000
      9 C14          4.6070     1.2930     1.1700 ca         1 L6C      -0.109000
     10 C13          3.4380     0.5470     1.1170 ca         1 L6C      -0.096000
     11 N1           0.5180     0.1260     0.3410 ns         1 L6C      -0.504900
     12 C5          -0.7250     0.0020    -0.1440 c          1 L6C       0.636100
     13 O2          -1.0690    -0.7580    -1.0210 o          1 L6C      -0.519000
     14 O3          -1.5670     0.8510     0.4850 os         1 L6C      -0.371200
     15 C6          -2.9050     0.7840     0.1480 ca         1 L6C       0.117100
     16 C7          -3.7010    -0.2170     0.6810 ca         1 L6C      -0.107500
     17 C8          -5.0550    -0.2340     0.3800 ca         1 L6C      -0.098500
     18 C9          -5.6040     0.7410    -0.4430 ca         1 L6C      -0.108000
     19 C10         -4.7920     1.7390    -0.9660 ca         1 L6C      -0.098500
     20 C11         -3.4340     1.7630    -0.6750 ca         1 L6C      -0.107500
     21 H31C         2.0110    -1.8230     1.5920 hc         1 L6C       0.070700
     22 H32C         2.6560    -2.5190     0.0960 hc         1 L6C       0.070700
     23 HXT         -0.2720    -2.5560     1.0610 h4         1 L6C      -0.012800
     24 H4           1.4180    -0.8470    -1.2360 h1         1 L6C       0.087700
     25 H1           0.6860     0.7710     1.0980 hn         1 L6C       0.333500
     26 H17          3.1480     0.2400    -2.2370 ha         1 L6C       0.115000
     27 H13          2.9530     0.2660     2.0460 ha         1 L6C       0.115000
     28 H16          5.2320     1.5470    -2.1460 ha         1 L6C       0.117000
     29 H15          6.1720     2.2340     0.0410 ha         1 L6C       0.116000
     30 H14          5.0140     1.5850     2.1300 ha         1 L6C       0.117000
     31 H7          -3.2710    -0.9710     1.3290 ha         1 L6C       0.125000
     32 H11         -2.7970     2.5390    -1.0790 ha         1 L6C       0.125000
     33 H8          -5.6830    -1.0120     0.7940 ha         1 L6C       0.117000
     34 H9          -6.6600     0.7250    -0.6740 ha         1 L6C       0.116000
     35 H10         -5.2140     2.5040    -1.6050 ha         1 L6C       0.117000
@<TRIPOS>BOND
     1     1     2 2   
     2     2     3 1   
     3     2    23 1   
     4     3     4 1   
     5     3    21 1   
     6     3    22 1   
     7     4     5 1   
     8     4    11 1   
     9     4    24 1   
    10     5     6 ar  
    11     5    10 ar  
    12     6     7 ar  
    13     6    26 1   
    14     7     8 ar  
    15     7    28 1   
    16     8     9 ar  
    17     8    29 1   
    18     9    10 ar  
    19     9    30 1   
    20    10    27 1   
    21    11    12 1   
    22    11    25 1   
    23    12    13 2   
    24    12    14 1   
    25    14    15 1   
    26    15    16 ar  
    27    15    20 ar  
    28    16    17 ar  
    29    16    31 1   
    30    17    18 ar  
    31    17    33 1   
    32    18    19 ar  
    33    18    34 1   
    34    19    20 ar  
    35    19    35 1   
    36    20    32 1   
@<TRIPOS>SUBSTRUCTURE
     1 L6C         1 TEMP              0 ****  ****    0 ROOT
