@<TRIPOS>MOLECULE
L6C
   35    36     1     0     0
SMALL
No Charge or Current Charge


@<TRIPOS>ATOM
      1 O1           0.7720    -3.9250    -0.1290 o          1 L6C      -0.503100
      2 C2           0.7560    -3.0330     0.7120 c          1 L6C       0.583900
      3 C3           1.8850    -2.0180     0.8680 c3         1 L6C      -0.220400
      4 C4           1.7050    -0.8170    -0.0840 c3         1 L6C       0.189000
      5 C12          2.9350     0.0890    -0.1040 ca         1 L6C      -0.109300
      6 C17          3.5860     0.3640    -1.3240 ca         1 L6C      -0.096000
      7 C16          4.7170     1.1990    -1.3560 ca         1 L6C      -0.109000
      8 C15          5.2050     1.7700    -0.1700 ca         1 L6C      -0.099000
      9 C14          4.5600     1.5060     1.0500 ca         1 L6C      -0.109000
     10 C13          3.4300     0.6710     1.0840 ca         1 L6C      -0.096000
     11 N1           0.5240    -0.0310     0.2610 ns         1 L6C      -0.504900
     12 C5          -0.7300    -0.2250    -0.2480 c          1 L6C       0.636100
     13 O2          -1.0290    -1.0840    -1.0610 o          1 L6C      -0.519000
     14 O3          -1.5640     0.7320     0.2510 os         1 L6C      -0.371200
     15 C6          -2.9180     0.7800     0.0170 ca         1 L6C       0.117100
     16 C7          -3.7220    -0.3730     0.1240 ca         1 L6C      -0.107500
     17 C8          -5.1080    -0.2870    -0.0980 ca         1 L6C      -0.098500
     18 C9          -5.6930     0.9510    -0.4180 ca         1 L6C      -0.108000
     19 C10         -4.8940     2.1040    -0.5100 ca         1 L6C      -0.098500
     20 C11         -3.5080     2.0180    -0.2870 ca         1 L6C      -0.107500
     21 H31C         1.8700    -1.6410     1.8960 hc         1 L6C       0.070700
     22 H32C         2.8400    -2.5070     0.6440 hc         1 L6C       0.070700
     23 HXT         -0.0980    -2.9180     1.4150 h4         1 L6C      -0.012800
     24 H4           1.5660    -1.2130    -1.1000 h1         1 L6C       0.087700
     25 H1           0.6300     0.7520     0.8920 hn         1 L6C       0.333500
     26 H17          3.2190    -0.0700    -2.2520 ha         1 L6C       0.115000
     27 H13          2.9400     0.4810     2.0360 ha         1 L6C       0.115000
     28 H16          5.2130     1.4040    -2.3020 ha         1 L6C       0.117000
     29 H15          6.0790     2.4170    -0.1950 ha         1 L6C       0.116000
     30 H14          4.9350     1.9500     1.9700 ha         1 L6C       0.117000
     31 H7          -3.2790    -1.3310     0.3850 ha         1 L6C       0.125000
     32 H11         -2.8900     2.9100    -0.3530 ha         1 L6C       0.125000
     33 H8          -5.7280    -1.1770    -0.0190 ha         1 L6C       0.117000
     34 H9          -6.7660     1.0170    -0.5890 ha         1 L6C       0.116000
     35 H10         -5.3480     3.0630    -0.7510 ha         1 L6C       0.117000
@<TRIPOS>BOND
     1     1     2 2   
     2     2     3 1   
     3     2    23 1   
     4     3     4 1   
     5     3    21 1   
     6     3    22 1   
     7     4     5 1   
     8     4    11 1   
     9     4    24 1   
    10     5     6 ar  
    11     5    10 ar  
    12     6     7 ar  
    13     6    26 1   
    14     7     8 ar  
    15     7    28 1   
    16     8     9 ar  
    17     8    29 1   
    18     9    10 ar  
    19     9    30 1   
    20    10    27 1   
    21    11    12 1   
    22    11    25 1   
    23    12    13 2   
    24    12    14 1   
    25    14    15 1   
    26    15    16 ar  
    27    15    20 ar  
    28    16    17 ar  
    29    16    31 1   
    30    17    18 ar  
    31    17    33 1   
    32    18    19 ar  
    33    18    34 1   
    34    19    20 ar  
    35    19    35 1   
    36    20    32 1   
@<TRIPOS>SUBSTRUCTURE
     1 L6C         1 TEMP              0 ****  ****    0 ROOT
