@<TRIPOS>MOLECULE
L6D
   32    34     1     0     0
SMALL
No Charge or Current Charge


@<TRIPOS>ATOM
      1 N1           7.8190     0.4430    19.7980 na         1 L6D      -0.060900
      2 C4          11.1380    -0.4330    22.8030 ca         1 L6D      -0.073300
      3 C5           9.6590    -0.1520    23.0530 c3         1 L6D      -0.102100
      4 C6           9.0520     0.6320    21.8850 c          1 L6D       0.597100
      5 C7           8.5030     1.2090    18.8420 cc         1 L6D       0.452700
      6 C8           6.3770     1.3950    18.4730 ca         1 L6D       0.072400
      7 C10          3.9680     1.2290    18.6170 ca         1 L6D      -0.133000
      8 C13          6.4860     0.5910    19.5750 ca         1 L6D      -0.069200
      9 O            9.2330     1.8350    21.7430 o          1 L6D      -0.536100
     10 C3          12.1130     0.5140    23.1750 ca         1 L6D      -0.083000
     11 C2          13.4760     0.2610    22.9400 ca         1 L6D      -0.098000
     12 C1          13.8720    -0.9420    22.3300 ca         1 L6D      -0.092000
     13 C14         11.5420    -1.6370    22.1920 ca         1 L6D      -0.095000
     14 C           12.9040    -1.8890    21.9580 ca         1 L6D       0.125000
     15 Cl          13.3980    -3.3940    21.1930 cl         1 L6D      -0.210000
     16 N            8.3000    -0.1230    21.0010 ns         1 L6D      -0.412200
     17 N2           7.6270     1.7910    17.9900 nd         1 L6D      -0.567100
     18 C12          5.3750     0.0670    20.2520 ca         1 L6D      -0.109000
     19 C11          4.0970     0.3990    19.7560 ca         1 L6D      -0.092000
     20 C9           5.1150     1.7360    17.9640 ca         1 L6D      -0.045000
     21 H1           9.5490     0.4430    23.9670 hc         1 L6D       0.070200
     22 H2           9.1270    -1.1030    23.1780 hc         1 L6D       0.070200
     23 H3           9.5820     1.3050    18.8330 h5         1 L6D       0.070800
     24 H4           2.9790     1.4810    18.2410 ha         1 L6D       0.115000
     25 H5          11.8150     1.4500    23.6440 ha         1 L6D       0.122000
     26 H6          14.2230     0.9970    23.2290 ha         1 L6D       0.123000
     27 H7          14.9250    -1.1410    22.1470 ha         1 L6D       0.133000
     28 H8          10.8040    -2.3790    21.8970 ha         1 L6D       0.126000
     29 H9           8.2660    -1.1290    21.1190 hn         1 L6D       0.341500
     30 H10          5.4910    -0.5730    21.1240 ha         1 L6D       0.116000
     31 H11          3.2080     0.0140    20.2510 ha         1 L6D       0.113000
     32 H12          5.0230     2.3760    17.0900 ha         1 L6D       0.131000
@<TRIPOS>BOND
     1     1     5 1   
     2     1     8 1   
     3     1    16 1   
     4     2     3 1   
     5     2    10 ar  
     6     2    13 ar  
     7     3     4 1   
     8     3    21 1   
     9     3    22 1   
    10     4     9 2   
    11     4    16 1   
    12     5    17 2   
    13     5    23 1   
    14     6     8 ar  
    15     6    17 1   
    16     6    20 ar  
    17     7    19 ar  
    18     7    20 ar  
    19     7    24 1   
    20     8    18 ar  
    21    10    11 ar  
    22    10    25 1   
    23    11    12 ar  
    24    11    26 1   
    25    12    14 ar  
    26    12    27 1   
    27    13    14 ar  
    28    13    28 1   
    29    14    15 1   
    30    16    29 1   
    31    18    19 ar  
    32    18    30 1   
    33    19    31 1   
    34    20    32 1   
@<TRIPOS>SUBSTRUCTURE
     1 L6D         1 TEMP              0 ****  ****    0 ROOT
