@<TRIPOS>MOLECULE
L6D
   32    34     1     0     0
SMALL
abcg2


@<TRIPOS>ATOM
      1 N1           7.5740    -0.2210    19.4850 na         1 L6D      -0.060900
      2 C4          11.1580    -0.6270    22.6410 ca         1 L6D      -0.073300
      3 C5           9.6810    -0.8670    22.4690 c3         1 L6D      -0.102100
      4 C6           9.1130    -0.0900    21.2910 c          1 L6D       0.597100
      5 C7           7.9500    -0.1920    18.1640 cc         1 L6D       0.452700
      6 C8           6.1460     0.9700    18.2960 ca         1 L6D       0.072400
      7 C10          4.2180     2.0960    19.1290 ca         1 L6D      -0.133000
      8 C13          6.4170     0.5320    19.6070 ca         1 L6D      -0.069200
      9 O            9.3680     1.0780    21.0650 o          1 L6D      -0.536100
     10 C3          11.6310     0.3460    23.5190 ca         1 L6D      -0.083000
     11 C2          12.9960     0.5740    23.6510 ca         1 L6D      -0.098000
     12 C1          13.9110    -0.1650    22.9100 ca         1 L6D      -0.092000
     13 C14         12.0700    -1.3730    21.8950 ca         1 L6D      -0.095000
     14 C           13.4280    -1.1330    22.0390 ca         1 L6D       0.125000
     15 CL          14.5650    -2.0810    21.0990 cl         1 L6D      -0.210000
     16 N            8.2660    -0.8210    20.5020 ns         1 L6D      -0.412200
     17 N2           7.1250     0.4960    17.4230 nd         1 L6D      -0.567100
     18 C12          5.6190     0.8580    20.6950 ca         1 L6D      -0.109000
     19 C11          4.5100     1.6510    20.4300 ca         1 L6D      -0.092000
     20 C9           5.0260     1.7640    18.0500 ca         1 L6D      -0.045000
     21 H1           9.1380    -0.5170    23.3510 hc         1 L6D       0.070200
     22 H2           9.4740    -1.9310    22.3560 hc         1 L6D       0.070200
     23 H3           8.8390    -0.7070    17.8330 h5         1 L6D       0.070800
     24 H4           3.3430     2.7130    18.9690 ha         1 L6D       0.115000
     25 H5          10.9270     0.9260    24.1020 ha         1 L6D       0.122000
     26 H6          13.3550     1.3300    24.3380 ha         1 L6D       0.123000
     27 H7          14.9740     0.0030    23.0080 ha         1 L6D       0.133000
     28 H8          11.7240    -2.1370    21.2100 ha         1 L6D       0.126000
     29 H9           7.9930    -1.7630    20.7440 hn         1 L6D       0.341500
     30 H10          5.8500     0.5140    21.6940 ha         1 L6D       0.116000
     31 H11          3.8560     1.9350    21.2440 ha         1 L6D       0.113000
     32 H12          4.8010     2.1100    17.0490 ha         1 L6D       0.131000
@<TRIPOS>BOND
     1     1     5 1   
     2     1     8 1   
     3     1    16 1   
     4     2     3 1   
     5     2    10 ar  
     6     2    13 ar  
     7     3     4 1   
     8     3    21 1   
     9     3    22 1   
    10     4     9 2   
    11     4    16 1   
    12     5    17 2   
    13     5    23 1   
    14     6     8 ar  
    15     6    17 1   
    16     6    20 ar  
    17     7    19 ar  
    18     7    20 ar  
    19     7    24 1   
    20     8    18 ar  
    21    10    11 ar  
    22    10    25 1   
    23    11    12 ar  
    24    11    26 1   
    25    12    14 ar  
    26    12    27 1   
    27    13    14 ar  
    28    13    28 1   
    29    14    15 1   
    30    16    29 1   
    31    18    19 ar  
    32    18    30 1   
    33    19    31 1   
    34    20    32 1   
@<TRIPOS>SUBSTRUCTURE
     1 L6D         1 TEMP              0 ****  ****    0 ROOT
