@<TRIPOS>MOLECULE
L6E
   46    47     1     0     0
SMALL
No Charge or Current Charge


@<TRIPOS>ATOM
      1 C10          3.7220     0.9130    -0.1430 cc         1 L6E      -0.016000
      2 N12          0.6800     1.9610     1.6410 ns         1 L6E      -0.504900
      3 C13         -0.3670     2.9670     1.8070 c3         1 L6E       0.131200
      4 C15         -2.3670     1.6970     0.8590 ce         1 L6E      -0.276200
      5 C21         -7.9260    -2.8120    -0.8280 c3         1 L6E       0.096300
      6 C01          5.7870    -0.0400    -1.2230 c6         1 L6E      -0.014200
      7 C02          6.9300    -1.0470    -0.9660 c6         1 L6E      -0.077400
      8 C03          6.3580    -2.4510    -0.6910 c6         1 L6E      -0.069400
      9 C04          5.4870    -2.4310     0.5850 c6         1 L6E      -0.054200
     10 C05          4.5020    -1.2740     0.6200 cd         1 L6E       0.089400
     11 C06          4.6650    -0.1720    -0.2070 cc         1 L6E      -0.196200
     12 C08          2.4800    -0.2970     1.6320 c          1 L6E       0.567200
     13 C09          2.6540     0.8790     0.7420 cd         1 L6E      -0.306400
     14 C11          1.7200     2.0390     0.7520 c          1 L6E       0.626300
     15 C14         -1.4830     2.7240     0.8160 c2         1 L6E      -0.150200
     16 C16         -3.4500     1.4860    -0.1360 c          1 L6E       0.597300
     17 C18         -5.2840     0.0170    -0.7130 c3         1 L6E       0.076600
     18 C19         -6.0260    -1.2630    -0.2580 c          1 L6E       0.596100
     19 N07          3.4300    -1.2730     1.4860 ns         1 L6E      -0.349100
     20 N20         -7.0820    -1.6370    -1.0640 ns         1 L6E      -0.513900
     21 O17         -4.1830     0.3690     0.1630 os         1 L6E      -0.411100
     22 O22          1.5840    -0.4400     2.4500 o          1 L6E      -0.592000
     23 O23          1.8550     3.0100     0.0200 o          1 L6E      -0.626100
     24 O24         -3.6580     2.2160    -1.0950 o          1 L6E      -0.494000
     25 O25         -5.7190    -1.9120     0.7360 o          1 L6E      -0.571100
     26 H1           3.8690     1.7610    -0.8100 ha         1 L6E       0.214000
     27 H2           0.6450     1.1160     2.2050 hn         1 L6E       0.357500
     28 H3          -0.7570     2.9090     2.8320 h1         1 L6E       0.067200
     29 H4           0.0590     3.9710     1.6660 h1         1 L6E       0.067200
     30 H5          -2.3180     0.9540     1.6530 ha         1 L6E       0.202000
     31 H7          -7.3090    -3.7200    -0.8440 h1         1 L6E       0.041700
     32 H8          -8.4200    -2.7230     0.1480 h1         1 L6E       0.041700
     33 H9          -8.6890    -2.8800    -1.6150 h1         1 L6E       0.041700
     34 H10          6.2020     0.9780    -1.2230 hc         1 L6E       0.053700
     35 H11          5.3890    -0.2030    -2.2340 hc         1 L6E       0.053700
     36 H12          7.6060    -1.0740    -1.8310 hc         1 L6E       0.048700
     37 H13          7.5310    -0.7170    -0.1070 hc         1 L6E       0.048700
     38 H14          5.7570    -2.7820    -1.5490 hc         1 L6E       0.051200
     39 H15          7.1740    -3.1780    -0.5770 hc         1 L6E       0.051200
     40 H16          4.9550    -3.3880     0.6730 hc         1 L6E       0.062200
     41 H17          6.1430    -2.3700     1.4650 hc         1 L6E       0.062200
     42 H19         -1.5300     3.4680     0.0180 ha         1 L6E       0.204000
     43 H21         -4.9250    -0.1580    -1.7350 h1         1 L6E       0.062700
     44 H22         -6.0230     0.8280    -0.7510 h1         1 L6E       0.062700
     45 H23         -7.2790    -1.0520    -1.8700 hn         1 L6E       0.315500
     46 H6           3.2960    -2.0630     2.1020 hn         1 L6E       0.329500
@<TRIPOS>BOND
     1     1    11 1   
     2     1    13 2   
     3     1    26 1   
     4     2     3 1   
     5     2    14 1   
     6     2    27 1   
     7     3    15 1   
     8     3    28 1   
     9     3    29 1   
    10     4    15 2   
    11     4    16 1   
    12     4    30 1   
    13     5    20 1   
    14     5    31 1   
    15     5    32 1   
    16     5    33 1   
    17     6     7 1   
    18     6    11 1   
    19     6    34 1   
    20     6    35 1   
    21     7     8 1   
    22     7    36 1   
    23     7    37 1   
    24     8     9 1   
    25     8    38 1   
    26     8    39 1   
    27     9    10 1   
    28     9    40 1   
    29     9    41 1   
    30    10    11 2   
    31    10    19 1   
    32    12    13 1   
    33    12    19 1   
    34    12    22 2   
    35    13    14 1   
    36    14    23 2   
    37    15    42 1   
    38    16    21 1   
    39    16    24 2   
    40    17    18 1   
    41    17    21 1   
    42    17    43 1   
    43    17    44 1   
    44    18    20 1   
    45    18    25 2   
    46    19    46 1   
    47    20    45 1   
@<TRIPOS>SUBSTRUCTURE
     1 L6E         1 TEMP              0 ****  ****    0 ROOT
