@<TRIPOS>MOLECULE
L6E
   46    47     1     0     0
SMALL
abcg2


@<TRIPOS>ATOM
      1 C10          4.0000     0.8470    -0.0340 cc         1 L6E      -0.016000
      2 N12          0.6650     0.8850     1.4330 ns         1 L6E      -0.504900
      3 C13         -0.5640     1.6310     1.5570 c3         1 L6E       0.131200
      4 C15         -2.7690     0.8610     0.6860 ce         1 L6E      -0.276200
      5 C21         -9.3870    -1.3580    -0.2810 c3         1 L6E       0.096300
      6 C01          6.3710     0.6250    -0.9160 c6         1 L6E      -0.014200
      7 C02          7.6530    -0.1250    -0.5780 c6         1 L6E      -0.077400
      8 C03          7.4120    -1.6280    -0.6030 c6         1 L6E      -0.069400
      9 C04          6.4040    -2.0270     0.4660 c6         1 L6E      -0.054200
     10 C05          5.2190    -1.1140     0.4810 cd         1 L6E       0.089400
     11 C06          5.1890     0.1060    -0.1420 cc         1 L6E      -0.196200
     12 C08          2.9430    -0.8580     1.3280 c          1 L6E       0.567200
     13 C09          2.8990     0.4200     0.6640 cd         1 L6E      -0.306400
     14 C11          1.7050     1.3130     0.7010 c          1 L6E       0.626300
     15 C14         -1.5300     1.2940     0.4650 c2         1 L6E      -0.150200
     16 C16         -3.6820     0.5510    -0.4280 c          1 L6E       0.597300
     17 C18         -5.8630    -0.1720    -0.9220 c3         1 L6E       0.076600
     18 C19         -7.1610    -0.3710    -0.1570 c          1 L6E       0.596100
     19 N07          4.1320    -1.5320     1.1690 ns         1 L6E      -0.349100
     20 N20         -8.0590    -1.1240    -0.8000 ns         1 L6E      -0.513900
     21 O17         -4.8680     0.1600     0.0290 os         1 L6E      -0.411100
     22 O22          2.0420    -1.3800     1.9940 o          1 L6E      -0.592000
     23 O23          1.6950     2.3810     0.0970 o          1 L6E      -0.626100
     24 O24         -3.4130     0.6320    -1.6030 o          1 L6E      -0.494000
     25 O25         -7.3670     0.1530     0.9240 o          1 L6E      -0.571100
     26 H1           3.9500     1.8120    -0.5250 ha         1 L6E       0.214000
     27 H2           0.7370    -0.0320     1.8590 hn         1 L6E       0.357500
     28 H3          -0.9990     1.4180     2.5330 h1         1 L6E       0.067200
     29 H4          -0.3420     2.7000     1.5260 h1         1 L6E       0.067200
     30 H5          -3.1400     0.7250     1.6950 ha         1 L6E       0.202000
     31 H7          -9.3670    -1.9770     0.6170 h1         1 L6E       0.041700
     32 H8          -9.8890    -0.4220    -0.0410 h1         1 L6E       0.041700
     33 H9          -9.9670    -1.8730    -1.0410 h1         1 L6E       0.041700
     34 H10          6.4920     1.6930    -0.7190 hc         1 L6E       0.053700
     35 H11          6.1690     0.5350    -1.9890 hc         1 L6E       0.053700
     36 H12          8.4370     0.1490    -1.2840 hc         1 L6E       0.048700
     37 H13          8.0040     0.1700     0.4160 hc         1 L6E       0.048700
     38 H14          7.0410    -1.9230    -1.5890 hc         1 L6E       0.051200
     39 H15          8.3420    -2.1750    -0.4380 hc         1 L6E       0.051200
     40 H16          6.0670    -3.0570     0.3210 hc         1 L6E       0.062200
     41 H17          6.8720    -1.9940     1.4560 hc         1 L6E       0.062200
     42 H19         -1.1720     1.4210    -0.5520 ha         1 L6E       0.204000
     43 H21         -5.5860    -1.0710    -1.4780 h1         1 L6E       0.062700
     44 H22         -6.0030     0.6360    -1.6470 h1         1 L6E       0.062700
     45 H23         -7.8050    -1.5630    -1.6690 hn         1 L6E       0.315500
     46 H6           4.1790    -2.4360     1.6230 hn         1 L6E       0.329500
@<TRIPOS>BOND
     1     1    11 1   
     2     1    13 2   
     3     1    26 1   
     4     2     3 1   
     5     2    14 1   
     6     2    27 1   
     7     3    15 1   
     8     3    28 1   
     9     3    29 1   
    10     4    15 2   
    11     4    16 1   
    12     4    30 1   
    13     5    20 1   
    14     5    31 1   
    15     5    32 1   
    16     5    33 1   
    17     6     7 1   
    18     6    11 1   
    19     6    34 1   
    20     6    35 1   
    21     7     8 1   
    22     7    36 1   
    23     7    37 1   
    24     8     9 1   
    25     8    38 1   
    26     8    39 1   
    27     9    10 1   
    28     9    40 1   
    29     9    41 1   
    30    10    11 2   
    31    10    19 1   
    32    12    13 1   
    33    12    19 1   
    34    12    22 2   
    35    13    14 1   
    36    14    23 2   
    37    15    42 1   
    38    16    21 1   
    39    16    24 2   
    40    17    18 1   
    41    17    21 1   
    42    17    43 1   
    43    17    44 1   
    44    18    20 1   
    45    18    25 2   
    46    19    46 1   
    47    20    45 1   
@<TRIPOS>SUBSTRUCTURE
     1 L6E         1 TEMP              0 ****  ****    0 ROOT
