@<TRIPOS>MOLECULE
L6F
   33    35     1     0     0
SMALL
bcc


@<TRIPOS>ATOM
      1 C02         -1.0280     4.3000   -21.2680 ca         1 L6F       0.145600
      2 C03         -2.2330     4.9670   -21.4930 ca         1 L6F      -0.196000
      3 C04         -3.4340     4.2750   -21.4820 ca         1 L6F      -0.092000
      4 C05         -3.4510     2.9120   -21.2440 ca         1 L6F      -0.163000
      5 C06         -2.2550     2.2320   -21.0230 ca         1 L6F      -0.033300
      6 C07         -1.0370     2.9070   -21.0480 ca         1 L6F      -0.118300
      7 C08          0.2590     2.1800   -20.8080 c6         1 L6F      -0.020100
      8 C09          0.0960     0.6700   -20.8510 c6         1 L6F       0.159800
      9 C11         -2.3160     0.7470   -20.7520 c6         1 L6F       0.261100
     10 C12         -2.6620    -0.0570   -21.9970 ca         1 L6F      -0.121300
     11 C13         -3.3590    -1.2550   -21.8510 ca         1 L6F      -0.118000
     12 C14         -3.6440    -2.0570   -22.9480 ca         1 L6F      -0.131000
     13 C15         -3.2290    -1.6710   -24.2160 ca         1 L6F      -0.125000
     14 C16         -2.5340    -0.4800   -24.3760 ca         1 L6F      -0.131000
     15 C17         -2.2570     0.3220   -23.2760 ca         1 L6F      -0.118000
     16 N01          0.1540     5.0130   -21.2000 nv         1 L6F      -0.821200
     17 N10         -1.0890     0.3000   -20.1050 n7         1 L6F      -0.796200
     18 H1          -2.2240     6.0360   -21.6740 ha         1 L6F       0.128000
     19 H2          -4.3600     4.8090   -21.6550 ha         1 L6F       0.129000
     20 H3          -4.3880     2.3690   -21.2240 ha         1 L6F       0.133000
     21 H4           0.6710     2.4810   -19.8380 hc         1 L6F       0.047200
     22 H5           1.0060     2.4650   -21.5560 hc         1 L6F       0.047200
     23 H6           0.0730     0.3300   -21.8970 h1         1 L6F       0.033700
     24 H7           0.9620     0.1940   -20.3890 h1         1 L6F       0.033700
     25 H8          -3.1260     0.5810   -20.0340 h1         1 L6F       0.072700
     26 H9          -3.6890    -1.5620   -20.8650 ha         1 L6F       0.133000
     27 H10         -4.1940    -2.9790   -22.8130 ha         1 L6F       0.130000
     28 H11         -3.4500    -2.2930   -25.0750 ha         1 L6F       0.130000
     29 H12         -2.2110    -0.1690   -25.3610 ha         1 L6F       0.130000
     30 H13         -1.7310     1.2570   -23.4200 ha         1 L6F       0.133000
     31 H14          0.9910     4.5180   -21.4620 hn         1 L6F       0.387300
     32 H15          0.1260     5.9250   -21.6310 hn         1 L6F       0.387300
     33 H16         -1.1250    -0.7030   -19.9740 hn         1 L6F       0.361800
@<TRIPOS>BOND
     1     1     2 ar  
     2     1     6 ar  
     3     1    16 1   
     4     2     3 ar  
     5     2    18 1   
     6     3     4 ar  
     7     3    19 1   
     8     4     5 ar  
     9     4    20 1   
    10     5     6 ar  
    11     5     9 1   
    12     6     7 1   
    13     7     8 1   
    14     7    21 1   
    15     7    22 1   
    16     8    17 1   
    17     8    23 1   
    18     8    24 1   
    19     9    10 1   
    20     9    17 1   
    21     9    25 1   
    22    10    11 ar  
    23    10    15 ar  
    24    11    12 ar  
    25    11    26 1   
    26    12    13 ar  
    27    12    27 1   
    28    13    14 ar  
    29    13    28 1   
    30    14    15 ar  
    31    14    29 1   
    32    15    30 1   
    33    16    31 1   
    34    16    32 1   
    35    17    33 1   
@<TRIPOS>SUBSTRUCTURE
     1 L6F         1 TEMP              0 ****  ****    0 ROOT
