@<TRIPOS>MOLECULE
L6F
   33    35     1     0     0
SMALL
No Charge or Current Charge


@<TRIPOS>ATOM
      1 C02         -1.0290     4.3360   -21.3080 ca         1 L6F       0.284000
      2 C03         -2.2430     5.0000   -21.5420 ca         1 L6F      -0.178000
      3 C04         -3.4560     4.2970   -21.5130 ca         1 L6F      -0.074000
      4 C05         -3.4560     2.9210   -21.2440 ca         1 L6F      -0.145000
      5 C06         -2.2480     2.2360   -21.0070 ca         1 L6F      -0.033300
      6 C07         -1.0200     2.9450   -21.0470 ca         1 L6F      -0.118300
      7 C08          0.3000     2.1980   -20.7690 c6         1 L6F      -0.020100
      8 C09          0.1640     0.6590   -20.8100 c6         1 L6F       0.159800
      9 C11         -2.2970     0.7190   -20.7280 c6         1 L6F       0.261100
     10 C12         -2.6410    -0.1120   -21.9760 ca         1 L6F      -0.121300
     11 C13         -3.3850    -1.3010   -21.8330 ca         1 L6F      -0.100000
     12 C14         -3.7150    -2.0760   -22.9590 ca         1 L6F      -0.113000
     13 C15         -3.3040    -1.6690   -24.2390 ca         1 L6F      -0.107000
     14 C16         -2.5630    -0.4860   -24.3920 ca         1 L6F      -0.113000
     15 C17         -2.2320     0.2900   -23.2680 ca         1 L6F      -0.100000
     16 N01          0.1300     5.0710   -21.3360 nv         1 L6F      -1.070000
     17 N10         -1.0530     0.2140   -20.1020 n7         1 L6F      -0.851400
     18 H1          -2.2500     6.0680   -21.7450 ha         1 L6F       0.110000
     19 H2          -4.3940     4.8170   -21.6960 ha         1 L6F       0.111000
     20 H3          -4.4000     2.3800   -21.2240 ha         1 L6F       0.115000
     21 H4           0.6690     2.4940   -19.7780 hc         1 L6F       0.047200
     22 H5           1.0720     2.4970   -21.4900 hc         1 L6F       0.047200
     23 H6           0.1300     0.3190   -21.8560 h1         1 L6F       0.033700
     24 H7           1.0510     0.2020   -20.3470 h1         1 L6F       0.033700
     25 H8          -3.1130     0.5580   -20.0050 h1         1 L6F       0.072700
     26 H9          -3.7090    -1.6270   -20.8470 ha         1 L6F       0.115000
     27 H10         -4.2890    -2.9920   -22.8390 ha         1 L6F       0.112000
     28 H11         -3.5600    -2.2690   -25.1100 ha         1 L6F       0.112000
     29 H12         -2.2440    -0.1690   -25.3830 ha         1 L6F       0.112000
     30 H13         -1.6560     1.2020   -23.4060 ha         1 L6F       0.115000
     31 H14          1.0310     4.6060   -21.2630 hn         1 L6F       0.442500
     32 H15          0.1140     6.0460   -21.6290 hn         1 L6F       0.442500
     33 H16         -1.0920    -0.8110   -20.1140 hn         1 L6F       0.417000
@<TRIPOS>BOND
     1     1     2 ar  
     2     1     6 ar  
     3     1    16 1   
     4     2     3 ar  
     5     2    18 1   
     6     3     4 ar  
     7     3    19 1   
     8     4     5 ar  
     9     4    20 1   
    10     5     6 ar  
    11     5     9 1   
    12     6     7 1   
    13     7     8 1   
    14     7    21 1   
    15     7    22 1   
    16     8    17 1   
    17     8    23 1   
    18     8    24 1   
    19     9    10 1   
    20     9    17 1   
    21     9    25 1   
    22    10    11 ar  
    23    10    15 ar  
    24    11    12 ar  
    25    11    26 1   
    26    12    13 ar  
    27    12    27 1   
    28    13    14 ar  
    29    13    28 1   
    30    14    15 ar  
    31    14    29 1   
    32    15    30 1   
    33    16    31 1   
    34    16    32 1   
    35    17    33 1   
@<TRIPOS>SUBSTRUCTURE
     1 L6F         1 TEMP              0 ****  ****    0 ROOT
