@<TRIPOS>MOLECULE
L6G
   61    63     1     0     0
SMALL
No Charge or Current Charge


@<TRIPOS>ATOM
      1 C1          -3.2950     0.1170     3.5180 c3         1 L6G       0.085600
      2 C2          -4.3320     0.2940     2.3940 c3         1 L6G      -0.030200
      3 C3          -3.7090     0.8190     1.1160 c2         1 L6G      -0.192200
      4 C4          -3.6240     0.1370    -0.0390 c2         1 L6G      -0.242200
      5 C5          -3.0010     0.6600    -1.3170 c3         1 L6G       0.155900
      6 C6          -0.9580     2.0900    -1.6820 c          1 L6G       0.597100
      7 C7           0.4330     2.4990    -1.0860 c3         1 L6G       0.040700
      8 C8           1.6050     2.5830    -2.1160 c3         1 L6G      -0.068700
      9 C9           1.7930     1.2900    -2.9420 c3         1 L6G      -0.091100
     10 C10          1.5120     3.8260    -3.0340 c3         1 L6G      -0.091100
     11 C11          1.4160     2.0940     1.2260 c          1 L6G       0.606100
     12 C12          1.6420     0.8980     2.2400 c5         1 L6G       0.042200
     13 C13          0.6840     1.0710     3.4420 c3         1 L6G      -0.069100
     14 C14          3.1380     0.8880     2.6680 c5         1 L6G       0.038600
     15 C15          2.4550    -0.8190     0.9570 ce         1 L6G       0.432200
     16 C16          2.3370    -1.5550    -0.3270 cc         1 L6G       0.240700
     17 C17          3.3870    -2.0360    -1.0800 cd         1 L6G      -0.225000
     18 C18          1.2000    -2.3970    -2.0470 cd         1 L6G       0.411700
     19 C19          0.0000    -2.7130    -2.9180 c3         1 L6G       0.073700
     20 C20         -2.1600    -1.5820    -2.2500 c          1 L6G       0.605100
     21 C21         -3.0380    -0.3500    -2.4870 c3         1 L6G      -0.168400
     22 N1          -1.6450     1.0980    -1.0090 ns         1 L6G      -0.516900
     23 N2           0.8140     1.6420     0.0670 ns         1 L6G      -0.504900
     24 N3           1.4090    -0.4670     1.6500 n2         1 L6G      -0.582900
     25 N4           1.0880    -1.7660    -0.8840 nc         1 L6G      -0.621000
     26 N5          -1.0030    -1.6280    -2.9960 ns         1 L6G      -0.506900
     27 O1          -1.4320     2.6130    -2.6810 o          1 L6G      -0.589100
     28 O2           1.7070     3.2690     1.4030 o          1 L6G      -0.589100
     29 O3          -2.4890    -2.4930    -1.5050 o          1 L6G      -0.582100
     30 S1          -4.0230    -0.5350     5.0940 sh         1 L6G      -0.473800
     31 S2           4.0090    -0.0090     1.3100 ss         1 L6G      -0.334200
     32 S3           2.8320    -2.7990    -2.5580 ss         1 L6G       0.005600
     33 H1          -2.5130    -0.5770     3.1830 h1         1 L6G       0.071200
     34 H2          -2.8210     1.0850     3.7300 h1         1 L6G       0.071200
     35 H3          -4.8220    -0.6710     2.2140 hc         1 L6G       0.058200
     36 H4          -5.1160     0.9820     2.7360 hc         1 L6G       0.058200
     37 H5          -3.3190     1.8360     1.1900 ha         1 L6G       0.173000
     38 H6          -4.0290    -0.8740    -0.1040 ha         1 L6G       0.184000
     39 H7          -3.5800     1.5430    -1.6270 h1         1 L6G       0.093700
     40 H8           0.2670     3.5090    -0.6880 h1         1 L6G       0.105700
     41 H9           2.5240     2.7200    -1.5320 hc         1 L6G       0.065700
     42 H10          0.9080     1.0710    -3.5500 hc         1 L6G       0.037867
     43 H11          2.6540     1.3850    -3.6150 hc         1 L6G       0.037867
     44 H12          1.9830     0.4380    -2.2830 hc         1 L6G       0.037867
     45 H13          0.6730     3.7480    -3.7350 hc         1 L6G       0.037867
     46 H14          1.3840     4.7400    -2.4410 hc         1 L6G       0.037867
     47 H15          2.4300     3.9360    -3.6230 hc         1 L6G       0.037867
     48 H16         -0.3620     1.0640     3.1140 hc         1 L6G       0.057033
     49 H17          0.8090     0.2640     4.1740 hc         1 L6G       0.057033
     50 H18          0.8630     2.0210     3.9600 hc         1 L6G       0.057033
     51 H19          3.5560     1.8920     2.8190 h1         1 L6G       0.098700
     52 H20          3.2720     0.3210     3.6000 h1         1 L6G       0.098700
     53 H22          4.4450    -1.9780    -0.8570 h4         1 L6G       0.177000
     54 H23          0.3540    -2.9270    -3.9350 h1         1 L6G       0.072700
     55 H24         -0.4710    -3.6280    -2.5390 h1         1 L6G       0.072700
     56 H25         -4.0740    -0.6770    -2.6260 hc         1 L6G       0.072200
     57 H26         -2.7000     0.1730    -3.3880 hc         1 L6G       0.072200
     58 H27         -1.2200     0.7410    -0.1640 hn         1 L6G       0.327500
     59 H28          0.6960     0.6330     0.0070 hn         1 L6G       0.340500
     60 H31         -0.8190    -0.8370    -3.6010 hn         1 L6G       0.322500
     61 H32         -2.8620    -0.5570     5.7960 hs         1 L6G       0.210800
@<TRIPOS>BOND
     1     1     2 1   
     2     1    30 1   
     3     1    33 1   
     4     1    34 1   
     5     2     3 1   
     6     2    35 1   
     7     2    36 1   
     8     3     4 2   
     9     3    37 1   
    10     4     5 1   
    11     4    38 1   
    12     5    21 1   
    13     5    22 1   
    14     5    39 1   
    15     6     7 1   
    16     6    22 1   
    17     6    27 2   
    18     7     8 1   
    19     7    23 1   
    20     7    40 1   
    21     8     9 1   
    22     8    10 1   
    23     8    41 1   
    24     9    42 1   
    25     9    43 1   
    26     9    44 1   
    27    10    45 1   
    28    10    46 1   
    29    10    47 1   
    30    11    12 1   
    31    11    23 1   
    32    11    28 2   
    33    12    13 1   
    34    12    14 1   
    35    12    24 1   
    36    13    48 1   
    37    13    49 1   
    38    13    50 1   
    39    14    31 1   
    40    14    51 1   
    41    14    52 1   
    42    15    16 1   
    43    15    24 2   
    44    15    31 1   
    45    16    17 2   
    46    16    25 1   
    47    17    32 1   
    48    17    53 1   
    49    18    19 1   
    50    18    25 2   
    51    18    32 1   
    52    19    26 1   
    53    19    54 1   
    54    19    55 1   
    55    20    21 1   
    56    20    26 1   
    57    20    29 2   
    58    21    56 1   
    59    21    57 1   
    60    22    58 1   
    61    23    59 1   
    62    26    60 1   
    63    30    61 1   
@<TRIPOS>SUBSTRUCTURE
     1 L6G         1 TEMP              0 ****  ****    0 ROOT
