@<TRIPOS>MOLECULE
L6G
   61    63     1     0     0
SMALL
abcg2


@<TRIPOS>ATOM
      1 C1          -2.4170    -1.2060     2.5540 c3         1 L6G       0.085600
      2 C2          -3.2430     0.0160     2.1580 c3         1 L6G      -0.030200
      3 C3          -2.7080     0.5590     0.8720 c2         1 L6G      -0.192200
      4 C4          -3.3450     0.5050    -0.2900 c2         1 L6G      -0.242200
      5 C5          -2.7840     0.9290    -1.6200 c3         1 L6G       0.155900
      6 C6          -1.0240     2.6470    -1.4490 c          1 L6G       0.597100
      7 C7           0.4340     2.9110    -1.0620 c3         1 L6G       0.040700
      8 C8           1.4280     2.7850    -2.2350 c3         1 L6G      -0.068700
      9 C9           1.5510     1.3780    -2.8060 c3         1 L6G      -0.091100
     10 C10          1.1020     3.7920    -3.3320 c3         1 L6G      -0.091100
     11 C11          1.4470     2.4880     1.1610 c          1 L6G       0.606100
     12 C12          1.4900     1.4320     2.2960 c5         1 L6G       0.042200
     13 C13          0.6070     1.9350     3.4320 c3         1 L6G      -0.069100
     14 C14          2.9380     1.2040     2.7640 c5         1 L6G       0.038600
     15 C15          1.9030    -0.5740     1.3410 ce         1 L6G       0.432200
     16 C16          1.6430    -1.7110     0.4590 cc         1 L6G       0.240700
     17 C17          2.2870    -2.9060     0.4910 cd         1 L6G      -0.225000
     18 C18          0.6380    -2.6260    -1.2640 cd         1 L6G       0.411700
     19 C19         -0.2240    -2.8010    -2.4820 c3         1 L6G       0.073700
     20 C20         -2.2560    -1.4680    -2.2520 c          1 L6G       0.605100
     21 C21         -2.9430    -0.1860    -2.6700 c3         1 L6G      -0.168400
     22 N1          -1.4030     1.3520    -1.5250 ns         1 L6G      -0.516900
     23 N2           0.7890     2.0800     0.0670 ns         1 L6G      -0.504900
     24 N3           0.9800     0.1860     1.7580 n2         1 L6G      -0.582900
     25 N4           0.7120    -1.5630    -0.5380 nc         1 L6G      -0.621000
     26 N5          -1.0240    -1.6500    -2.7760 ns         1 L6G      -0.506900
     27 O1          -1.7850     3.5750    -1.6650 o          1 L6G      -0.589100
     28 O2           1.9370     3.5940     1.3090 o          1 L6G      -0.589100
     29 O3          -2.7620    -2.2630    -1.4790 o          1 L6G      -0.582100
     30 S1          -3.0100    -1.8450     4.1570 sh         1 L6G      -0.473800
     31 S2           3.5650    -0.1130     1.6810 ss         1 L6G      -0.334200
     32 S3           1.6980    -3.9030    -0.7630 ss         1 L6G       0.005600
     33 H1          -2.5060    -1.9750     1.7870 h1         1 L6G       0.071200
     34 H2          -1.3650    -0.9320     2.6360 h1         1 L6G       0.071200
     35 H3          -4.2970    -0.2540     2.0580 hc         1 L6G       0.058200
     36 H4          -3.1730     0.7710     2.9470 hc         1 L6G       0.058200
     37 H5          -1.6980     0.9510     0.9250 ha         1 L6G       0.173000
     38 H6          -4.3520     0.1000    -0.3290 ha         1 L6G       0.184000
     39 H7          -3.3580     1.7800    -1.9940 h1         1 L6G       0.093700
     40 H8           0.4630     3.9490    -0.7240 h1         1 L6G       0.105700
     41 H9           2.3980     3.0570    -1.8060 hc         1 L6G       0.065700
     42 H10          0.6640     1.0920    -3.3760 hc         1 L6G       0.037867
     43 H11          2.3960     1.3310    -3.4940 hc         1 L6G       0.037867
     44 H12          1.7250     0.6230    -2.0370 hc         1 L6G       0.037867
     45 H13          0.1590     3.5580    -3.8280 hc         1 L6G       0.037867
     46 H14          1.0300     4.8070    -2.9380 hc         1 L6G       0.037867
     47 H15          1.8820     3.7850    -4.0940 hc         1 L6G       0.037867
     48 H16         -0.4060     2.1260     3.0780 hc         1 L6G       0.057033
     49 H17          0.5540     1.1850     4.2210 hc         1 L6G       0.057033
     50 H18          1.0020     2.8570     3.8560 hc         1 L6G       0.057033
     51 H19          3.5580     2.0930     2.6740 h1         1 L6G       0.098700
     52 H20          2.9660     0.8590     3.7980 h1         1 L6G       0.098700
     53 H22          3.0460    -3.2430     1.1800 h4         1 L6G       0.177000
     54 H23          0.4180    -3.0050    -3.3400 h1         1 L6G       0.072700
     55 H24         -0.8610    -3.6780    -2.3520 h1         1 L6G       0.072700
     56 H25         -4.0060    -0.3960    -2.7910 hc         1 L6G       0.072200
     57 H26         -2.5710     0.1790    -3.6280 hc         1 L6G       0.072200
     58 H27         -0.7270     0.6190    -1.3520 hn         1 L6G       0.327500
     59 H28          0.4650     1.1240     0.1050 hn         1 L6G       0.340500
     60 H31         -0.6730    -0.9950    -3.4540 hn         1 L6G       0.322500
     61 H32         -2.0930    -2.8050     4.3190 hs         1 L6G       0.210800
@<TRIPOS>BOND
     1     1     2 1   
     2     1    30 1   
     3     1    33 1   
     4     1    34 1   
     5     2     3 1   
     6     2    35 1   
     7     2    36 1   
     8     3     4 2   
     9     3    37 1   
    10     4     5 1   
    11     4    38 1   
    12     5    21 1   
    13     5    22 1   
    14     5    39 1   
    15     6     7 1   
    16     6    22 1   
    17     6    27 2   
    18     7     8 1   
    19     7    23 1   
    20     7    40 1   
    21     8     9 1   
    22     8    10 1   
    23     8    41 1   
    24     9    42 1   
    25     9    43 1   
    26     9    44 1   
    27    10    45 1   
    28    10    46 1   
    29    10    47 1   
    30    11    12 1   
    31    11    23 1   
    32    11    28 2   
    33    12    13 1   
    34    12    14 1   
    35    12    24 1   
    36    13    48 1   
    37    13    49 1   
    38    13    50 1   
    39    14    31 1   
    40    14    51 1   
    41    14    52 1   
    42    15    16 1   
    43    15    24 2   
    44    15    31 1   
    45    16    17 2   
    46    16    25 1   
    47    17    32 1   
    48    17    53 1   
    49    18    19 1   
    50    18    25 2   
    51    18    32 1   
    52    19    26 1   
    53    19    54 1   
    54    19    55 1   
    55    20    21 1   
    56    20    26 1   
    57    20    29 2   
    58    21    56 1   
    59    21    57 1   
    60    22    58 1   
    61    23    59 1   
    62    26    60 1   
    63    30    61 1   
@<TRIPOS>SUBSTRUCTURE
     1 L6G         1 TEMP              0 ****  ****    0 ROOT
