@<TRIPOS>MOLECULE
L6I
   68    72     1     0     0
SMALL
bcc


@<TRIPOS>ATOM
      1 C1           6.8740    -1.5940     1.1740 c3         1 L6I       0.127700
      2 O2           6.6150    -0.2310     0.8930 os         1 L6I      -0.333900
      3 C3           5.4460     0.0830     0.3160 ca         1 L6I       0.122100
      4 C4           4.4450    -0.7980    -0.0330 ca         1 L6I      -0.175000
      5 C5           3.2350    -0.3760    -0.6430 ca         1 L6I      -0.031300
      6 C6           3.0200     0.9540    -0.9200 ca         1 L6I      -0.103000
      7 C7           4.0290     1.8620    -0.5720 ca         1 L6I       0.047400
      8 N8           4.1030     3.2150    -0.7230 nc         1 L6I      -0.239400
      9 N9           5.2280     3.6110    -0.2580 nd         1 L6I      -0.192400
     10 N10          5.9210     2.5810     0.2020 na         1 L6I       0.105900
     11 C11          7.2290     2.7800     0.7840 c3         1 L6I       0.055600
     12 C12          5.2100     1.4390     0.0310 ca         1 L6I      -0.114200
     13 C13          2.1450    -1.3810    -0.9670 c3         1 L6I       0.030900
     14 C14          2.6620    -2.7320    -1.4510 c3         1 L6I      -0.206400
     15 C15          1.5580    -3.6400    -2.0300 c          1 L6I       0.927600
     16 O16          0.5970    -3.0810    -2.5920 o          1 L6I      -0.833300
     17 O17          1.7400    -4.8700    -1.9210 o          1 L6I      -0.833300
     18 C18          1.2100    -1.5190     0.2170 ca         1 L6I      -0.022300
     19 C19          1.5940    -2.1650     1.3870 ca         1 L6I      -0.108000
     20 C20          0.7200    -2.2500     2.4620 ca         1 L6I      -0.134000
     21 C21         -0.5530    -1.6920     2.4130 ca         1 L6I      -0.095300
     22 C22         -1.4850    -1.8070     3.5850 c3         1 L6I      -0.038800
     23 C23         -0.9430    -1.0380     1.2380 ca         1 L6I      -0.101300
     24 C24         -2.3250    -0.4350     1.1640 c3         1 L6I       0.270100
     25 N25         -2.5220     0.3820    -0.0250 n3         1 L6I      -0.742500
     26 C26         -2.2210     1.8040     0.0980 c3         1 L6I       0.180800
     27 C27         -3.3530     2.6180     0.7090 c3         1 L6I       0.126100
     28 C28         -2.9460     4.0600     0.9170 c3         1 L6I      -0.090100
     29 O29         -4.4930     2.6170    -0.1710 os         1 L6I      -0.352900
     30 C30         -5.4370     1.6610    -0.0040 ca         1 L6I       0.201100
     31 C31         -6.6720     2.0060     0.5240 ca         1 L6I      -0.169000
     32 C32         -7.6590     1.0420     0.6760 ca         1 L6I      -0.076000
     33 C33         -7.4220    -0.2760     0.3120 ca         1 L6I      -0.165000
     34 C34         -6.1940    -0.6320    -0.2220 ca         1 L6I      -0.012000
     35 C35         -5.2110     0.3350    -0.3810 ca         1 L6I      -0.328500
     36 S36         -3.6550    -0.0870    -1.1150 sy         1 L6I       1.318200
     37 O37         -3.4710     0.7200    -2.3080 o          1 L6I      -0.582800
     38 O38         -3.5930    -1.5340    -1.2220 o          1 L6I      -0.582800
     39 C39         -0.0670    -0.9710     0.1630 ca         1 L6I      -0.075000
     40 H13          1.5620    -0.9550    -1.7850 hc         1 L6I       0.089700
     41 H27         -3.6460     2.1800     1.6710 h1         1 L6I       0.044700
     42 H1           6.1440    -2.0080     1.8740 h1         1 L6I       0.041700
     43 H1A          6.8780    -2.2000     0.2650 h1         1 L6I       0.041700
     44 H1B          7.8610    -1.6320     1.6280 h1         1 L6I       0.041700
     45 H4           4.5860    -1.8540     0.1500 ha         1 L6I       0.150000
     46 H6           2.1030     1.2920    -1.3850 ha         1 L6I       0.156000
     47 H11          7.2310     2.4860     1.8310 h1         1 L6I       0.054367
     48 H11A         7.9780     2.2050     0.2460 h1         1 L6I       0.054367
     49 H11B         7.4660     3.8370     0.7110 h1         1 L6I       0.054367
     50 H14          3.4060    -2.5630    -2.2390 hc         1 L6I       0.022200
     51 H14A         3.1870    -3.2680    -0.6580 hc         1 L6I       0.022200
     52 H19          2.5770    -2.6120     1.4760 ha         1 L6I       0.127000
     53 H20          1.0380    -2.7620     3.3630 ha         1 L6I       0.112000
     54 H22         -1.7710    -0.8290     3.9780 hc         1 L6I       0.029033
     55 H22A        -2.4110    -2.3210     3.3170 hc         1 L6I       0.029033
     56 H22B        -1.0260    -2.3650     4.4000 hc         1 L6I       0.029033
     57 H24         -3.0750    -1.2270     1.2130 h1         1 L6I       0.045700
     58 H24A        -2.5070     0.1840     2.0480 h1         1 L6I       0.045700
     59 H26         -1.3370     1.8780     0.7330 h1         1 L6I       0.087700
     60 H26A        -1.9420     2.2120    -0.8740 h1         1 L6I       0.087700
     61 H28         -2.6520     4.5290    -0.0230 hc         1 L6I       0.049367
     62 H28A        -3.7630     4.6350     1.3510 hc         1 L6I       0.049367
     63 H28B        -2.0990     4.1130     1.6000 hc         1 L6I       0.049367
     64 H31         -6.8570     3.0340     0.8120 ha         1 L6I       0.139000
     65 H32         -8.6170     1.3250     1.0920 ha         1 L6I       0.127000
     66 H33         -8.1900    -1.0260     0.4400 ha         1 L6I       0.133000
     67 H34         -6.0030    -1.6570    -0.5100 ha         1 L6I       0.164000
     68 H39         -0.3880    -0.4810    -0.7480 ha         1 L6I       0.148000
@<TRIPOS>BOND
     1     1     2 1   
     2     1    42 1   
     3     1    43 1   
     4     1    44 1   
     5     2     3 1   
     6     3     4 ar  
     7     3    12 ar  
     8     4     5 ar  
     9     4    45 1   
    10     5     6 ar  
    11     5    13 1   
    12     6     7 ar  
    13     6    46 1   
    14     7     8 1   
    15     7    12 ar  
    16     8     9 2   
    17     9    10 1   
    18    10    11 1   
    19    10    12 1   
    20    11    47 1   
    21    11    48 1   
    22    11    49 1   
    23    13    14 1   
    24    13    18 1   
    25    13    40 1   
    26    14    15 1   
    27    14    50 1   
    28    14    51 1   
    29    15    16 1   
    30    15    17 1   
    31    18    19 ar  
    32    18    39 ar  
    33    19    20 ar  
    34    19    52 1   
    35    20    21 ar  
    36    20    53 1   
    37    21    22 1   
    38    21    23 ar  
    39    22    54 1   
    40    22    55 1   
    41    22    56 1   
    42    23    24 1   
    43    23    39 ar  
    44    24    25 1   
    45    24    57 1   
    46    24    58 1   
    47    25    26 1   
    48    25    36 1   
    49    26    27 1   
    50    26    59 1   
    51    26    60 1   
    52    27    28 1   
    53    27    29 1   
    54    27    41 1   
    55    28    61 1   
    56    28    62 1   
    57    28    63 1   
    58    29    30 1   
    59    30    31 ar  
    60    30    35 ar  
    61    31    32 ar  
    62    31    64 1   
    63    32    33 ar  
    64    32    65 1   
    65    33    34 ar  
    66    33    66 1   
    67    34    35 ar  
    68    34    67 1   
    69    35    36 1   
    70    36    37 2   
    71    36    38 2   
    72    39    68 1   
@<TRIPOS>SUBSTRUCTURE
     1 L6I         1 TEMP              0 ****  ****    0 ROOT
