@<TRIPOS>MOLECULE
L6I
   68    72     1     0     0
SMALL
No Charge or Current Charge


@<TRIPOS>ATOM
      1 C1           6.8340    -1.0030     1.7090 c3         1 L6I       0.150900
      2 O2           6.4040     0.2460     1.1390 os         1 L6I      -0.357100
      3 C3           5.2520     0.3540     0.3850 ca         1 L6I       0.122100
      4 C4           4.4020    -0.7470     0.1140 ca         1 L6I      -0.157000
      5 C5           3.2250    -0.5810    -0.6680 ca         1 L6I      -0.031300
      6 C6           2.8980     0.7030    -1.1670 ca         1 L6I      -0.085000
      7 C7           3.7510     1.7770    -0.8880 ca         1 L6I       0.047400
      8 N8           3.6250     3.1090    -1.2730 nc         1 L6I      -0.239400
      9 N9           4.6750     3.7620    -0.7700 nd         1 L6I      -0.192400
     10 N10          5.4360     2.8380    -0.0830 na         1 L6I       0.076600
     11 C11          6.6850     3.1810     0.6140 c3         1 L6I       0.084900
     12 C12          4.8760     1.5970    -0.1460 ca         1 L6I      -0.114200
     13 C13          2.2670    -1.7450    -0.9610 c3         1 L6I       0.030900
     14 C14          2.9620    -3.1360    -1.0500 c3         1 L6I      -0.206400
     15 C15          2.0140    -4.1670    -1.6830 c          1 L6I       0.717000
     16 O16          1.9760    -4.2360    -2.9030 o          1 L6I      -0.728000
     17 O17          1.3240    -4.8530    -0.9450 o          1 L6I      -0.728000
     18 C18          1.1130    -1.7120     0.0440 ca         1 L6I      -0.022300
     19 C19          1.3350    -1.9700     1.4090 ca         1 L6I      -0.090000
     20 C20          0.2740    -1.9060     2.3260 ca         1 L6I      -0.116000
     21 C21         -1.0260    -1.5670     1.9030 ca         1 L6I      -0.095300
     22 C22         -2.1460    -1.5260     2.9390 c3         1 L6I      -0.038800
     23 C23         -1.2560    -1.2800     0.5320 ca         1 L6I      -0.101300
     24 C24         -2.6360    -0.8740    -0.0010 c3         1 L6I       0.270100
     25 N25         -2.6030     0.3100    -0.8930 n3         1 L6I      -0.742500
     26 C26         -1.9670     1.5170    -0.2910 c3         1 L6I       0.180800
     27 C27         -2.6540     2.1270     0.9680 c3         1 L6I       0.149300
     28 C28         -1.8650     3.3230     1.5340 c3         1 L6I      -0.090100
     29 O29         -3.9670     2.6210     0.6410 os         1 L6I      -0.376100
     30 C30         -5.0450     1.7710     0.6700 ca         1 L6I       0.201100
     31 C31         -5.9710     1.9170     1.7150 ca         1 L6I      -0.151000
     32 C32         -7.0750     1.0550     1.8100 ca         1 L6I      -0.058000
     33 C33         -7.2550     0.0450     0.8510 ca         1 L6I      -0.147000
     34 C34         -6.3380    -0.0980    -0.2050 ca         1 L6I       0.006000
     35 C35         -5.2310     0.7720    -0.3010 ca         1 L6I      -0.328500
     36 S36         -4.0890     0.6060    -1.6700 sy         1 L6I       1.176600
     37 O37         -3.9500     1.9030    -2.3430 o          1 L6I      -0.512000
     38 O38         -4.4010    -0.5970    -2.4490 o          1 L6I      -0.512000
     39 C39         -0.1850    -1.3720    -0.3810 ca         1 L6I      -0.057000
     40 H13          1.8560    -1.5630    -1.9630 hc         1 L6I       0.089700
     41 H27         -2.7180     1.3660     1.7560 h1         1 L6I       0.044700
     42 H1           6.0800    -1.3950     2.4040 h1         1 L6I       0.041700
     43 H1A          7.0120    -1.7500     0.9240 h1         1 L6I       0.041700
     44 H1B          7.7700    -0.8650     2.2650 h1         1 L6I       0.041700
     45 H4           4.6420    -1.7270     0.5120 ha         1 L6I       0.132000
     46 H6           1.9980     0.8630    -1.7550 ha         1 L6I       0.138000
     47 H11          6.5820     2.9520     1.6820 h1         1 L6I       0.054367
     48 H11A         7.5120     2.5980     0.1920 h1         1 L6I       0.054367
     49 H11B         6.8980     4.2500     0.4930 h1         1 L6I       0.054367
     50 H14          3.8270    -2.9820    -1.7070 hc         1 L6I       0.022200
     51 H14A         3.2330    -3.4410    -0.0330 hc         1 L6I       0.022200
     52 H19          2.3310    -2.2170     1.7660 ha         1 L6I       0.109000
     53 H20          0.4690    -2.1180     3.3740 ha         1 L6I       0.094000
     54 H22         -2.5110    -0.5040     3.0890 hc         1 L6I       0.029033
     55 H22A        -2.9940    -2.1500     2.6330 hc         1 L6I       0.029033
     56 H22B        -1.8100    -1.8970     3.9150 hc         1 L6I       0.029033
     57 H24         -3.0360    -1.7400    -0.5450 h1         1 L6I       0.045700
     58 H24A        -3.3240    -0.6880     0.8320 h1         1 L6I       0.045700
     59 H26         -0.9350     1.2770    -0.0040 h1         1 L6I       0.087700
     60 H26A        -1.8710     2.3130    -1.0420 h1         1 L6I       0.087700
     61 H28         -1.7740     4.1200     0.7860 hc         1 L6I       0.049367
     62 H28A        -2.3700     3.7310     2.4170 hc         1 L6I       0.049367
     63 H28B        -0.8570     3.0120     1.8320 hc         1 L6I       0.049367
     64 H31         -5.8240     2.6940     2.4590 ha         1 L6I       0.121000
     65 H32         -7.7870     1.1680     2.6250 ha         1 L6I       0.109000
     66 H33         -8.1080    -0.6250     0.9220 ha         1 L6I       0.115000
     67 H34         -6.5010    -0.8810    -0.9450 ha         1 L6I       0.146000
     68 H39         -0.3650    -1.1570    -1.4320 ha         1 L6I       0.130000
@<TRIPOS>BOND
     1     1     2 1   
     2     1    42 1   
     3     1    43 1   
     4     1    44 1   
     5     2     3 1   
     6     3     4 ar  
     7     3    12 ar  
     8     4     5 ar  
     9     4    45 1   
    10     5     6 ar  
    11     5    13 1   
    12     6     7 ar  
    13     6    46 1   
    14     7     8 1   
    15     7    12 ar  
    16     8     9 2   
    17     9    10 1   
    18    10    11 1   
    19    10    12 1   
    20    11    47 1   
    21    11    48 1   
    22    11    49 1   
    23    13    14 1   
    24    13    18 1   
    25    13    40 1   
    26    14    15 1   
    27    14    50 1   
    28    14    51 1   
    29    15    16 1   
    30    15    17 1   
    31    18    19 ar  
    32    18    39 ar  
    33    19    20 ar  
    34    19    52 1   
    35    20    21 ar  
    36    20    53 1   
    37    21    22 1   
    38    21    23 ar  
    39    22    54 1   
    40    22    55 1   
    41    22    56 1   
    42    23    24 1   
    43    23    39 ar  
    44    24    25 1   
    45    24    57 1   
    46    24    58 1   
    47    25    26 1   
    48    25    36 1   
    49    26    27 1   
    50    26    59 1   
    51    26    60 1   
    52    27    28 1   
    53    27    29 1   
    54    27    41 1   
    55    28    61 1   
    56    28    62 1   
    57    28    63 1   
    58    29    30 1   
    59    30    31 ar  
    60    30    35 ar  
    61    31    32 ar  
    62    31    64 1   
    63    32    33 ar  
    64    32    65 1   
    65    33    34 ar  
    66    33    66 1   
    67    34    35 ar  
    68    34    67 1   
    69    35    36 1   
    70    36    37 2   
    71    36    38 2   
    72    39    68 1   
@<TRIPOS>SUBSTRUCTURE
     1 L6I         1 TEMP              0 ****  ****    0 ROOT
