@<TRIPOS>MOLECULE
L6J
   38    39     1     0     0
SMALL
No Charge or Current Charge


@<TRIPOS>ATOM
      1 C10          0.2760     1.4480    -0.0520 c5         1 L6J      -0.146700
      2 C13          2.2260     2.8960    -0.1070 c5         1 L6J      -0.081400
      3 C15          2.1460    -0.2730     0.6020 c3         1 L6J      -0.301700
      4 C17          3.3980    -1.0310     0.1750 c          1 L6J       0.740000
      5 C22         -3.2360    -2.3460    -1.7970 c3         1 L6J       0.156900
      6 C01         -2.9490    -0.3000    -0.4420 ca         1 L6J       0.211100
      7 C02         -4.1140    -0.5700     0.3140 ca         1 L6J      -0.240000
      8 C03         -4.5120     0.3000     1.3420 ca         1 L6J      -0.085000
      9 C04         -3.7530     1.4440     1.6210 ca         1 L6J      -0.185000
     10 C05         -2.5960     1.7220     0.8780 ca         1 L6J      -0.055000
     11 C06         -2.1820     0.8500    -0.1540 ca         1 L6J      -0.110600
     12 C08         -0.9510     1.1530    -0.9680 c          1 L6J       0.644700
     13 C11          1.5320     0.6170    -0.5280 c5         1 L6J       0.000300
     14 C12          0.6850     2.9550    -0.1840 c5         1 L6J      -0.081400
     15 C14          2.4930     1.7210    -1.0730 c5         1 L6J      -0.074400
     16 C16          1.1790    -1.3170     1.1480 c          1 L6J       0.740000
     17 O09         -0.9600     1.2070    -2.1950 o          1 L6J      -0.532100
     18 O18          3.3800    -1.6990    -0.8480 o          1 L6J      -0.768000
     19 O19          4.4090    -0.8850     0.8460 o          1 L6J      -0.768000
     20 O20          0.5830    -2.0480     0.3730 o          1 L6J      -0.768000
     21 O21          0.9760    -1.3300     2.3530 o          1 L6J      -0.768000
     22 H1           0.0230     1.2220     0.9890 hc         1 L6J       0.067700
     23 H3           2.6950     3.8280    -0.4430 hc         1 L6J       0.006200
     24 H4           2.5830     2.6930     0.9100 hc         1 L6J       0.006200
     25 H5           2.4380     0.3560     1.4540 hc         1 L6J       0.013700
     26 H6          -2.7260    -2.8610    -2.6210 h1         1 L6J       0.026033
     27 H7          -3.2770    -3.0320    -0.9410 h1         1 L6J       0.026033
     28 H8          -4.2590    -2.1180    -2.1190 h1         1 L6J       0.026033
     29 H10         -5.4090     0.0880     1.9190 ha         1 L6J       0.077000
     30 H11         -4.0650     2.1210     2.4130 ha         1 L6J       0.088000
     31 H12         -2.0280     2.6240     1.0990 ha         1 L6J       0.113000
     32 H13          1.2700    -0.0670    -1.3440 hc         1 L6J       0.075700
     33 H15          0.3630     3.3890    -1.1380 hc         1 L6J       0.017200
     34 H16          0.2540     3.5750     0.6100 hc         1 L6J       0.017200
     35 H17          2.2430     1.9910    -2.1060 hc         1 L6J       0.043200
     36 H18          3.5450     1.4140    -1.0740 hc         1 L6J       0.043200
     37 O07         -2.5300    -1.1440    -1.4520 os         1 L6J      -0.267100
     38 H9          -4.7230    -1.4480     0.1200 ha         1 L6J       0.093000
@<TRIPOS>BOND
     1     1    12 1   
     2     1    13 1   
     3     1    14 1   
     4     1    22 1   
     5     2    14 1   
     6     2    15 1   
     7     2    23 1   
     8     2    24 1   
     9     3     4 1   
    10     3    13 1   
    11     3    16 1   
    12     3    25 1   
    13     4    18 1   
    14     4    19 1   
    15     5    26 1   
    16     5    27 1   
    17     5    28 1   
    18     5    37 1   
    19     6     7 ar  
    20     6    11 ar  
    21     6    37 1   
    22     7     8 ar  
    23     7    38 1   
    24     8     9 ar  
    25     8    29 1   
    26     9    10 ar  
    27     9    30 1   
    28    10    11 ar  
    29    10    31 1   
    30    11    12 1   
    31    12    17 2   
    32    13    15 1   
    33    13    32 1   
    34    14    33 1   
    35    14    34 1   
    36    15    35 1   
    37    15    36 1   
    38    16    20 1   
    39    16    21 1   
@<TRIPOS>SUBSTRUCTURE
     1 L6J         1 TEMP              0 ****  ****    0 ROOT
