@<TRIPOS>MOLECULE
L6J
   38    39     1     0     0
SMALL
bcc


@<TRIPOS>ATOM
      1 C10          0.3940     1.3940    -0.0980 c5         1 L6J      -0.146700
      2 C13          1.9040     3.2550    -0.0900 c5         1 L6J      -0.081400
      3 C15          2.1670    -0.4410     0.2900 c3         1 L6J      -0.301700
      4 C17          3.5530    -0.9630    -0.1080 c          1 L6J       0.950600
      5 C22         -3.5900    -2.3950    -1.4430 c3         1 L6J       0.133700
      6 C01         -3.0050    -0.4210    -0.2680 ca         1 L6J       0.211100
      7 C02         -4.2050    -0.4490     0.4440 ca         1 L6J      -0.258000
      8 C03         -4.4780     0.5120     1.4070 ca         1 L6J      -0.103000
      9 C04         -3.5580     1.5070     1.6880 ca         1 L6J      -0.203000
     10 C05         -2.3570     1.5220     0.9940 ca         1 L6J      -0.073000
     11 C06         -2.0570     0.5860     0.0090 ca         1 L6J      -0.110600
     12 C08         -0.7820     0.7030    -0.7550 c          1 L6J       0.644700
     13 C11          1.7640     0.8120    -0.4830 c5         1 L6J       0.000300
     14 C12          0.5030     2.8600    -0.5470 c5         1 L6J      -0.081400
     15 C14          2.7520     1.9860    -0.2790 c5         1 L6J      -0.074400
     16 C16          1.1130    -1.5620     0.1490 c          1 L6J       0.950600
     17 O09         -0.7180     0.3600    -1.9190 o          1 L6J      -0.532100
     18 O18          3.9440    -0.7660    -1.2780 o          1 L6J      -0.873300
     19 O19          4.1970    -1.5640     0.7810 o          1 L6J      -0.873300
     20 O20          1.4120    -2.5610    -0.5350 o          1 L6J      -0.873300
     21 O21          0.0250    -1.3730     0.7360 o          1 L6J      -0.873300
     22 H1           0.2880     1.3620     0.9900 hc         1 L6J       0.067700
     23 H3           2.2940     4.1150    -0.6370 hc         1 L6J       0.006200
     24 H4           1.8740     3.5380     0.9650 hc         1 L6J       0.006200
     25 H5           2.1970    -0.1620     1.3520 hc         1 L6J       0.013700
     26 H6          -3.1320    -3.0060    -2.2170 h1         1 L6J       0.026033
     27 H7          -3.7420    -3.0120    -0.5540 h1         1 L6J       0.026033
     28 H8          -4.5630    -2.0500    -1.8020 h1         1 L6J       0.026033
     29 H10         -5.4210     0.4720     1.9380 ha         1 L6J       0.095000
     30 H11         -3.7640     2.2600     2.4370 ha         1 L6J       0.106000
     31 H12         -1.6390     2.2990     1.2220 ha         1 L6J       0.131000
     32 H13          1.7350     0.5700    -1.5480 hc         1 L6J       0.075700
     33 H15          0.4250     2.9160    -1.6370 hc         1 L6J       0.017200
     34 H16         -0.2770     3.5030    -0.1340 hc         1 L6J       0.017200
     35 H17          3.4210     2.0690    -1.1360 hc         1 L6J       0.043200
     36 H18          3.3910     1.8140     0.5910 hc         1 L6J       0.043200
     37 O07         -2.6990    -1.3260    -1.2030 os         1 L6J      -0.243900
     38 H9          -4.9420    -1.2180     0.2570 ha         1 L6J       0.111000
@<TRIPOS>BOND
     1     1    12 1   
     2     1    13 1   
     3     1    14 1   
     4     1    22 1   
     5     2    14 1   
     6     2    15 1   
     7     2    23 1   
     8     2    24 1   
     9     3     4 1   
    10     3    13 1   
    11     3    16 1   
    12     3    25 1   
    13     4    18 1   
    14     4    19 1   
    15     5    26 1   
    16     5    27 1   
    17     5    28 1   
    18     5    37 1   
    19     6     7 ar  
    20     6    11 ar  
    21     6    37 1   
    22     7     8 ar  
    23     7    38 1   
    24     8     9 ar  
    25     8    29 1   
    26     9    10 ar  
    27     9    30 1   
    28    10    11 ar  
    29    10    31 1   
    30    11    12 1   
    31    12    17 2   
    32    13    15 1   
    33    13    32 1   
    34    14    33 1   
    35    14    34 1   
    36    15    35 1   
    37    15    36 1   
    38    16    20 1   
    39    16    21 1   
@<TRIPOS>SUBSTRUCTURE
     1 L6J         1 TEMP              0 ****  ****    0 ROOT
