@<TRIPOS>MOLECULE
L6K
   41    42     1     0     0
SMALL
No Charge or Current Charge


@<TRIPOS>ATOM
      1 C1           7.4820    -0.2270     0.7650 c3         1 L6K       0.124500
      2 O1           5.8820     1.1920    -0.5220 os         1 L6K      -0.248000
      3 C2           6.1130     0.0300     0.1790 cc         1 L6K       0.117300
      4 O2           1.7470     0.0770     0.3630 os         1 L6K      -0.352100
      5 C3           4.9670    -0.7150     0.2120 cd         1 L6K      -0.139000
      6 C4           3.9720    -0.0020    -0.4930 cd         1 L6K      -0.157300
      7 C5           4.5650     1.1560    -0.9250 cc         1 L6K       0.138900
      8 C6          -2.3970    -0.5510     0.7050 ca         1 L6K      -0.082300
      9 N2          -4.4920     1.5080     0.0260 n7         1 L6K      -0.829400
     10 C15         -4.7370     0.0380    -0.1830 c3         1 L6K       0.036500
     11 C12         -3.9020    -0.7710     0.8450 c3         1 L6K      -0.027100
     12 C11         -1.6900     0.1920     1.6700 ca         1 L6K      -0.079500
     13 C10         -0.3050     0.3900     1.5360 ca         1 L6K      -0.177500
     14 C7          -1.7010    -1.0950    -0.3930 ca         1 L6K      -0.079500
     15 C8          -0.3150    -0.8970    -0.5280 ca         1 L6K      -0.177500
     16 C9           0.3890    -0.1500     0.4410 ca         1 L6K       0.108100
     17 C13          2.5470    -0.4310    -0.7170 c3         1 L6K       0.241900
     18 N1           8.4190    -0.8460    -0.2050 n8         1 L6K      -0.986200
     19 C35         -6.2610    -0.4030    -0.1660 c          1 L6K       0.718000
     20 O36         -6.8300    -0.5520     0.9110 o          1 L6K      -0.724000
     21 O37         -6.8140    -0.6120    -1.2390 o          1 L6K      -0.724000
     22 H1           7.9080     0.7260     1.1120 h1         1 L6K       0.044200
     23 H2           7.3830    -0.8900     1.6360 h1         1 L6K       0.044200
     24 H3           4.8520    -1.6800     0.6970 ha         1 L6K       0.148000
     25 H4           4.1880     1.9940    -1.4960 h4         1 L6K       0.051100
     26 H5          -4.6460     2.1560    -1.9940 h1         1 L6K       0.014367
     27 H6          -6.1490     2.3050    -1.0490 h1         1 L6K       0.014367
     28 H7          -4.8120     3.4450    -0.7800 h1         1 L6K       0.014367
     29 H10         -4.3530    -0.2320    -1.1760 h1         1 L6K       0.003700
     30 H11         -4.1240    -1.8370     0.7120 hc         1 L6K       0.060200
     31 H12         -4.2350    -0.5200     1.8600 hc         1 L6K       0.060200
     32 H13         -2.2130     0.6180     2.5230 ha         1 L6K       0.119500
     33 H14          0.2340     0.9650     2.2840 ha         1 L6K       0.107000
     34 H15         -2.2370    -1.6720    -1.1440 ha         1 L6K       0.119500
     35 H16          0.1890    -1.3300    -1.3870 ha         1 L6K       0.107000
     36 H17          2.5010    -1.5280    -0.7530 h1         1 L6K       0.038200
     37 H18          2.1970    -0.0360    -1.6800 h1         1 L6K       0.038200
     38 H19          8.5600    -0.1990    -0.9900 hn         1 L6K       0.393500
     39 H20          9.3510    -0.9170     0.2230 hn         1 L6K       0.393500
     40 C16         -5.0560     2.3980    -1.0040 c3         1 L6K       0.161100
     41 H8          -3.4760     1.6510     0.0430 hn         1 L6K       0.367000
@<TRIPOS>BOND
     1     1     3 1   
     2     1    18 1   
     3     1    22 1   
     4     1    23 1   
     5     2     3 1   
     6     2     7 1   
     7     3     5 2   
     8     4    16 1   
     9     4    17 1   
    10     5     6 1   
    11     5    24 1   
    12     6     7 2   
    13     6    17 1   
    14     7    25 1   
    15     8    11 1   
    16     8    12 ar  
    17     8    14 ar  
    18     9    10 1   
    19     9    40 1   
    20     9    41 1   
    21    10    11 1   
    22    10    19 1   
    23    10    29 1   
    24    11    30 1   
    25    11    31 1   
    26    12    13 ar  
    27    12    32 1   
    28    13    16 ar  
    29    13    33 1   
    30    14    15 ar  
    31    14    34 1   
    32    15    16 ar  
    33    15    35 1   
    34    17    36 1   
    35    17    37 1   
    36    18    38 1   
    37    18    39 1   
    38    19    20 1   
    39    19    21 1   
    40    26    40 1   
    41    27    40 1   
    42    28    40 1   
@<TRIPOS>SUBSTRUCTURE
     1 L6K         1 TEMP              0 ****  ****    0 ROOT
