@<TRIPOS>MOLECULE
L6K
   41    42     1     0     0
SMALL
abcg2


@<TRIPOS>ATOM
      1 C1           7.2500     0.0420     0.9540 c3         1 L6K       0.124500
      2 O1           5.9460     0.7660    -0.9620 os         1 L6K      -0.248000
      3 C2           5.9710     0.0680     0.1980 cc         1 L6K       0.117300
      4 O2           1.7480     0.0300     0.1900 os         1 L6K      -0.352100
      5 C3           4.7540    -0.4830     0.4220 cd         1 L6K      -0.139000
      6 C4           3.9230    -0.0970    -0.6790 cd         1 L6K      -0.157300
      7 C5           4.7070     0.6600    -1.4810 cc         1 L6K       0.138900
      8 C6          -2.3430    -0.6870     0.4990 ca         1 L6K      -0.082300
      9 N2          -4.3330     1.4670     0.2440 n7         1 L6K      -0.829400
     10 C15         -4.6560     0.1220    -0.1800 c3         1 L6K       0.036500
     11 C12         -3.8270    -0.8950     0.6210 c3         1 L6K      -0.027100
     12 C11         -1.6160    -0.0380     1.4970 ca         1 L6K      -0.079500
     13 C10         -0.2550     0.1860     1.3740 ca         1 L6K      -0.177500
     14 C7          -1.6480    -1.1010    -0.6320 ca         1 L6K      -0.079500
     15 C8          -0.2820    -0.8870    -0.7760 ca         1 L6K      -0.177500
     16 C9           0.4240    -0.2350     0.2320 ca         1 L6K       0.108100
     17 C13          2.5020    -0.4590    -0.9080 c3         1 L6K       0.241900
     18 N1           8.2900    -0.6790     0.2270 n8         1 L6K      -0.986200
     19 C35         -6.1470    -0.2360     0.0260 c          1 L6K       0.718000
     20 O36         -6.7430     0.2940     0.9810 o          1 L6K      -0.724000
     21 O37         -6.6100    -1.0820    -0.7670 o          1 L6K      -0.724000
     22 H1           7.5340     1.0680     1.2240 h1         1 L6K       0.044200
     23 H2           7.0560    -0.4790     1.8920 h1         1 L6K       0.044200
     24 H3           4.4790    -1.0930     1.2680 ha         1 L6K       0.148000
     25 H4           4.5210     1.1630    -2.4170 h4         1 L6K       0.051100
     26 H5          -4.8030     2.3710    -1.6450 h1         1 L6K       0.014367
     27 H6          -6.0450     2.4880    -0.3940 h1         1 L6K       0.014367
     28 H7          -4.5910     3.4700    -0.2770 h1         1 L6K       0.014367
     29 H10         -4.4230    -0.0300    -1.2500 h1         1 L6K       0.003700
     30 H11         -4.0900    -1.8950     0.2680 hc         1 L6K       0.060200
     31 H12         -4.1230    -0.8350     1.6720 hc         1 L6K       0.060200
     32 H13         -2.1230     0.2970     2.3940 ha         1 L6K       0.119500
     33 H14          0.2890     0.6890     2.1640 ha         1 L6K       0.107000
     34 H15         -2.1780    -1.6100    -1.4290 ha         1 L6K       0.119500
     35 H16          0.2060    -1.2350    -1.6760 ha         1 L6K       0.107000
     36 H17          2.3900    -1.5470    -0.9840 h1         1 L6K       0.038200
     37 H18          2.1500    -0.0250    -1.8510 h1         1 L6K       0.038200
     38 H19          8.5980    -0.1210    -0.5600 hn         1 L6K       0.393500
     39 H20          9.1010    -0.7650     0.8270 hn         1 L6K       0.393500
     40 C16         -4.9680     2.4870    -0.5630 c3         1 L6K       0.161100
     41 H8          -3.3300     1.5930     0.1780 hn         1 L6K       0.367000
@<TRIPOS>BOND
     1     1     3 1   
     2     1    18 1   
     3     1    22 1   
     4     1    23 1   
     5     2     3 1   
     6     2     7 1   
     7     3     5 2   
     8     4    16 1   
     9     4    17 1   
    10     5     6 1   
    11     5    24 1   
    12     6     7 2   
    13     6    17 1   
    14     7    25 1   
    15     8    11 1   
    16     8    12 ar  
    17     8    14 ar  
    18     9    10 1   
    19     9    40 1   
    20     9    41 1   
    21    10    11 1   
    22    10    19 1   
    23    10    29 1   
    24    11    30 1   
    25    11    31 1   
    26    12    13 ar  
    27    12    32 1   
    28    13    16 ar  
    29    13    33 1   
    30    14    15 ar  
    31    14    34 1   
    32    15    16 ar  
    33    15    35 1   
    34    17    36 1   
    35    17    37 1   
    36    18    38 1   
    37    18    39 1   
    38    19    20 1   
    39    19    21 1   
    40    26    40 1   
    41    27    40 1   
    42    28    40 1   
@<TRIPOS>SUBSTRUCTURE
     1 L6K         1 TEMP              0 ****  ****    0 ROOT
