@<TRIPOS>MOLECULE
L6M
   80    83     1     0     0
SMALL
abcg2


@<TRIPOS>ATOM
      1 C13         -5.1900   -35.0220    24.6890 c3         1 L6M      -0.153400
      2 C17         -9.0590   -37.5250    24.8450 c5         1 L6M       0.145300
      3 C21        -10.5150   -38.1400    23.0920 c5         1 L6M      -0.169400
      4 C22        -11.1910   -38.3810    24.4360 c5         1 L6M       0.323700
      5 C24        -12.6860   -36.4720    24.6500 cc         1 L6M       0.040600
      6 C26        -13.6450   -38.6690    24.5790 c          1 L6M       0.721400
      7 C28        -15.0120   -36.8090    24.8520 cd         1 L6M       0.788500
      8 C02          1.5990   -33.7400    21.7330 c          1 L6M       0.625700
      9 C03          1.0740   -35.0610    22.2220 c5         1 L6M      -0.175700
     10 C04         -0.0580   -35.6790    21.4050 c5         1 L6M      -0.035700
     11 C05         -1.3910   -34.9170    21.4190 c3         1 L6M      -0.151400
     12 C08         -2.6900   -34.7030    24.9760 c3         1 L6M      -0.045300
     13 C09         -1.4810   -34.9850    25.9160 c          1 L6M       0.722000
     14 C12         -3.9480   -35.4090    25.4790 c3         1 L6M      -0.064400
     15 C14         -6.4800   -35.5530    25.2800 c          1 L6M       0.594100
     16 C16         -8.8400   -36.0140    24.7800 c3         1 L6M       0.093000
     17 C19         -9.0430   -38.2010    23.4750 c5         1 L6M       0.143300
     18 C25        -13.9020   -35.9110    24.7910 cd         1 L6M      -0.500600
     19 C33         -0.1060   -37.1000    21.9730 c5         1 L6M      -0.086400
     20 C34          1.3640   -37.4770    22.2380 c5         1 L6M      -0.070400
     21 C35          2.1580   -36.1540    22.1860 c5         1 L6M      -0.061400
     22 C36          2.3800   -32.8940    22.6760 ca         1 L6M      -0.206600
     23 C37          2.3890   -33.1050    24.0550 ca         1 L6M      -0.060000
     24 C38          3.1470   -32.2980    24.8880 ca         1 L6M      -0.135000
     25 C39          3.9230   -31.2580    24.3820 ca         1 L6M       0.024700
     26 C40          4.7260   -30.3880    25.2910 c3         1 L6M      -0.192100
     27 C41          4.0210   -29.0530    25.6760 c          1 L6M       0.729000
     28 C44          3.9050   -31.0460    23.0020 ca         1 L6M      -0.135000
     29 C45          3.1500   -31.8440    22.1650 ca         1 L6M      -0.060000
     30 N07         -2.4480   -35.0520    23.5960 ns         1 L6M      -0.476900
     31 N15         -7.4960   -35.6610    24.4000 ns         1 L6M      -0.531900
     32 N23        -12.5270   -37.8140    24.5580 n          1 L6M      -0.317000
     33 N27        -14.8630   -38.1140    24.7470 nc         1 L6M      -0.783100
     34 O01          1.4530   -33.3950    20.5760 o          1 L6M      -0.587100
     35 O10         -1.6290   -34.5740    27.0820 o          1 L6M      -0.720000
     36 O11         -0.4960   -35.5850    25.4480 o          1 L6M      -0.720000
     37 O18        -10.3480   -37.7870    25.3960 os         1 L6M      -0.461000
     38 O20         -8.5910   -39.5240    23.6550 oh         1 L6M      -0.701000
     39 O31         -6.6090   -35.8220    26.4650 o          1 L6M      -0.591100
     40 O32         -1.3060   -33.1800    23.0640 o          1 L6M      -0.596100
     41 O42          3.1840   -28.6070    24.8740 o          1 L6M      -0.728000
     42 O43          4.3970   -28.5410    26.7470 o          1 L6M      -0.728000
     43 H1          -5.2780   -33.9300    24.6630 hc         1 L6M       0.052200
     44 H2          -5.1040   -35.3370    23.6470 hc         1 L6M       0.052200
     45 H3          -8.3020   -37.9670    25.5000 h1         1 L6M       0.118700
     46 H4         -10.8000   -38.8780    22.3420 hc         1 L6M       0.063700
     47 H5         -10.7650   -37.1530    22.6950 hc         1 L6M       0.063700
     48 H6         -11.2970   -39.4480    24.6310 h2         1 L6M       0.114700
     49 H7         -11.7930   -35.8660    24.6110 h4         1 L6M       0.210000
     50 H8           0.7380   -34.9770    23.2570 hc         1 L6M       0.131700
     51 H10          0.2650   -35.7430    20.3610 hc         1 L6M       0.040700
     52 H12         -1.3460   -34.1030    20.6950 hc         1 L6M       0.043700
     53 H13         -2.1890   -35.5890    21.0950 hc         1 L6M       0.043700
     54 H14         -2.8770   -33.6250    25.0140 h1         1 L6M       0.067700
     55 H15         -4.0810   -35.1480    26.5270 hc         1 L6M       0.062200
     56 H16         -3.8040   -36.4940    25.4410 hc         1 L6M       0.062200
     57 H17         -9.5190   -35.5620    24.0540 h1         1 L6M       0.050200
     58 H18         -9.0740   -35.5780    25.7530 h1         1 L6M       0.050200
     59 H19         -8.4120   -37.6570    22.7620 h1         1 L6M       0.057700
     60 H20        -14.0210   -34.8410    24.8680 ha         1 L6M       0.200000
     61 H21         -0.6660   -37.1030    22.9100 hc         1 L6M       0.042200
     62 H22         -0.6080   -37.7940    21.2970 hc         1 L6M       0.042200
     63 H23          1.4740   -37.9620    23.2070 hc         1 L6M       0.029700
     64 H24          1.7370   -38.1770    21.4910 hc         1 L6M       0.029700
     65 H25          2.7270   -36.0850    21.2560 hc         1 L6M       0.039200
     66 H26          2.8690   -36.0530    23.0060 hc         1 L6M       0.039200
     67 H27          1.8000   -33.8950    24.5020 ha         1 L6M       0.118000
     68 H28          3.1370   -32.4840    25.9560 ha         1 L6M       0.108500
     69 H29          4.9960   -30.9330    26.1980 hc         1 L6M       0.024700
     70 H30          5.6680   -30.1180    24.8010 hc         1 L6M       0.024700
     71 H31          4.5070   -30.2510    22.5780 ha         1 L6M       0.108500
     72 H32          3.1660   -31.6630    21.0990 ha         1 L6M       0.118000
     73 H33         -2.6640   -35.9940    23.3100 hn         1 L6M       0.281500
     74 H34         -7.3260   -35.4270    23.4360 hn         1 L6M       0.309500
     75 H35        -17.0300   -36.9470    25.0640 hn         1 L6M       0.497500
     76 H36        -16.4110   -35.3370    25.1040 hn         1 L6M       0.497500
     77 H38         -8.6790   -39.9910    22.8180 ho         1 L6M       0.503000
     78 N29        -16.2410   -36.3240    25.0200 nv         1 L6M      -1.041200
     79 C06         -1.7090   -34.3000    22.7650 c          1 L6M       0.588100
     80 O30        -13.4830   -39.8740    24.4430 o          1 L6M      -0.555000
@<TRIPOS>BOND
     1     1    14 1   
     2     1    15 1   
     3     1    43 1   
     4     1    44 1   
     5     2    16 1   
     6     2    17 1   
     7     2    37 1   
     8     2    45 1   
     9     3     4 1   
    10     3    17 1   
    11     3    46 1   
    12     3    47 1   
    13     4    32 1   
    14     4    37 1   
    15     4    48 1   
    16     5    18 2   
    17     5    32 1   
    18     5    49 1   
    19     6    32 1   
    20     6    33 1   
    21     6    80 2   
    22     7    18 1   
    23     7    33 2   
    24     7    78 1   
    25     8     9 1   
    26     8    22 1   
    27     8    34 2   
    28     9    10 1   
    29     9    21 1   
    30     9    50 1   
    31    10    11 1   
    32    10    19 1   
    33    10    51 1   
    34    11    52 1   
    35    11    53 1   
    36    11    79 1   
    37    12    13 1   
    38    12    14 1   
    39    12    30 1   
    40    12    54 1   
    41    13    35 1   
    42    13    36 1   
    43    14    55 1   
    44    14    56 1   
    45    15    31 1   
    46    15    39 2   
    47    16    31 1   
    48    16    57 1   
    49    16    58 1   
    50    17    38 1   
    51    17    59 1   
    52    18    60 1   
    53    19    20 1   
    54    19    61 1   
    55    19    62 1   
    56    20    21 1   
    57    20    63 1   
    58    20    64 1   
    59    21    65 1   
    60    21    66 1   
    61    22    23 ar  
    62    22    29 ar  
    63    23    24 ar  
    64    23    67 1   
    65    24    25 ar  
    66    24    68 1   
    67    25    26 1   
    68    25    28 ar  
    69    26    27 1   
    70    26    69 1   
    71    26    70 1   
    72    27    41 1   
    73    27    42 1   
    74    28    29 ar  
    75    28    71 1   
    76    29    72 1   
    77    30    73 1   
    78    30    79 1   
    79    31    74 1   
    80    38    77 1   
    81    40    79 2   
    82    75    78 1   
    83    76    78 1   
@<TRIPOS>SUBSTRUCTURE
     1 L6M         1 TEMP              0 ****  ****    0 ROOT
