@<TRIPOS>MOLECULE
L6M
   80    83     1     0     0
SMALL
No Charge or Current Charge


@<TRIPOS>ATOM
      1 C13         -4.0740   -35.6570    25.6190 c3         1 L6M      -0.153400
      2 C17         -8.6440   -36.1710    25.9200 c5         1 L6M       0.145300
      3 C21         -9.8000   -37.4730    24.2700 c5         1 L6M      -0.169400
      4 C22        -10.7980   -36.8400    25.2710 c5         1 L6M       0.323700
      5 C24        -11.7620   -35.2170    23.6340 cc         1 L6M       0.040600
      6 C26        -13.2110   -36.8730    24.6750 c          1 L6M       0.721400
      7 C28        -14.0730   -35.4050    23.1230 cd         1 L6M       0.788500
      8 C02          1.1430   -34.0570    21.1420 c          1 L6M       0.625700
      9 C03          1.3630   -35.3510    21.9790 c5         1 L6M      -0.175700
     10 C04          0.3360   -36.4570    21.5930 c5         1 L6M      -0.035700
     11 C05         -1.1340   -36.2190    22.0380 c3         1 L6M      -0.151400
     12 C08         -2.1680   -37.4350    25.5810 c3         1 L6M      -0.045300
     13 C09         -1.7750   -38.8700    26.0530 c          1 L6M       0.722000
     14 C12         -3.6520   -37.1200    25.9050 c3         1 L6M      -0.064400
     15 C14         -5.5190   -35.3970    26.0530 c          1 L6M       0.594100
     16 C16         -7.8660   -35.0400    25.1940 c3         1 L6M       0.093000
     17 C19         -8.5720   -37.5710    25.2050 c5         1 L6M       0.143300
     18 C25        -12.8390   -34.7600    22.9120 cd         1 L6M      -0.500600
     19 C33          1.0360   -37.6780    22.2380 c5         1 L6M      -0.086400
     20 C34          2.4650   -37.5490    21.6440 c5         1 L6M      -0.070400
     21 C35          2.7360   -36.0100    21.6130 c5         1 L6M      -0.061400
     22 C36          1.2320   -32.8040    21.9850 ca         1 L6M      -0.206600
     23 C37          2.2060   -32.6430    22.9970 ca         1 L6M      -0.060000
     24 C38          2.2700   -31.4520    23.7400 ca         1 L6M      -0.135000
     25 C39          1.3730   -30.3990    23.4860 ca         1 L6M       0.024700
     26 C40          1.4540   -29.1030    24.2860 c3         1 L6M      -0.192100
     27 C41          0.5520   -29.2080    25.5250 c          1 L6M       0.729000
     28 C44          0.4110   -30.5510    22.4710 ca         1 L6M      -0.135000
     29 C45          0.3430   -31.7400    21.7230 ca         1 L6M      -0.060000
     30 N07         -1.8630   -37.2640    24.1380 ns         1 L6M      -0.476900
     31 N15         -6.4250   -35.2770    25.0230 ns         1 L6M      -0.531900
     32 N23        -11.9470   -36.2710    24.5240 n          1 L6M      -0.317000
     33 N27        -14.2580   -36.3830    23.9410 nc         1 L6M      -0.783100
     34 O01          0.9330   -34.0120    19.9340 o          1 L6M      -0.587100
     35 O10         -0.9660   -38.9760    26.9650 o          1 L6M      -0.720000
     36 O11         -2.2360   -39.8310    25.4500 o          1 L6M      -0.720000
     37 O18        -10.0540   -35.8090    25.9460 os         1 L6M      -0.461000
     38 O20         -8.7190   -38.6630    26.1190 oh         1 L6M      -0.701000
     39 O31         -5.8440   -35.2760    27.2250 o          1 L6M      -0.591100
     40 O32         -1.0380   -35.1360    24.2060 o          1 L6M      -0.596100
     41 O42         -0.6240   -28.8960    25.4090 o          1 L6M      -0.728000
     42 O43          1.0230   -29.6970    26.5410 o          1 L6M      -0.728000
     43 H1          -3.4130   -34.9890    26.1830 hc         1 L6M       0.052200
     44 H2          -3.9700   -35.4640    24.5450 hc         1 L6M       0.052200
     45 H3          -8.2720   -36.2440    26.9510 h1         1 L6M       0.118700
     46 H4         -10.1380   -38.4450    23.8960 hc         1 L6M       0.063700
     47 H5          -9.5930   -36.8380    23.4020 hc         1 L6M       0.063700
     48 H6         -11.1550   -37.5820    25.9980 h2         1 L6M       0.114700
     49 H7         -10.7470   -34.8260    23.6030 h4         1 L6M       0.210000
     50 H8           1.3340   -35.1180    23.0480 hc         1 L6M       0.131700
     51 H10          0.2980   -36.5850    20.5030 hc         1 L6M       0.040700
     52 H12         -1.4920   -35.2830    21.5950 hc         1 L6M       0.043700
     53 H13         -1.7370   -37.0500    21.6510 hc         1 L6M       0.043700
     54 H14         -1.5390   -36.7400    26.1510 h1         1 L6M       0.067700
     55 H15         -3.8260   -37.3360    26.9670 hc         1 L6M       0.062200
     56 H16         -4.3000   -37.8010    25.3390 hc         1 L6M       0.062200
     57 H17         -8.3040   -34.8870    24.1990 h1         1 L6M       0.050200
     58 H18         -7.9960   -34.1070    25.7580 h1         1 L6M       0.050200
     59 H19         -7.6390   -37.6840    24.6330 h1         1 L6M       0.057700
     60 H20        -12.7470   -33.9400    22.2110 ha         1 L6M       0.200000
     61 H21          1.0520   -37.6220    23.3330 hc         1 L6M       0.042200
     62 H22          0.5610   -38.6280    21.9660 hc         1 L6M       0.042200
     63 H23          3.2080   -38.0890    22.2430 hc         1 L6M       0.029700
     64 H24          2.5060   -37.9690    20.6330 hc         1 L6M       0.029700
     65 H25          3.0890   -35.7080    20.6190 hc         1 L6M       0.039200
     66 H26          3.5190   -35.7210    22.3240 hc         1 L6M       0.039200
     67 H27          2.9310   -33.4280    23.2040 ha         1 L6M       0.118000
     68 H28          3.0250   -31.3470    24.5150 ha         1 L6M       0.108500
     69 H29          2.5000   -28.9780    24.5900 hc         1 L6M       0.024700
     70 H30          1.1030   -28.2980    23.6300 hc         1 L6M       0.024700
     71 H31         -0.2870   -29.7450    22.2580 ha         1 L6M       0.108500
     72 H32         -0.4070   -31.8350    20.9400 ha         1 L6M       0.118000
     73 H33         -2.0510   -38.0450    23.5190 hn         1 L6M       0.281500
     74 H34         -6.0580   -35.3700    24.0820 hn         1 L6M       0.309500
     75 H35        -16.0060   -35.3420    22.8890 hn         1 L6M       0.497500
     76 H36        -15.1490   -34.0430    22.1740 hn         1 L6M       0.497500
     77 H38         -8.5230   -39.4900    25.6200 ho         1 L6M       0.503000
     78 N29        -15.1470   -35.0080    22.4740 nv         1 L6M      -1.041200
     79 C06         -1.3180   -36.1360    23.5610 c          1 L6M       0.588100
     80 O30        -13.4020   -37.8110    25.4310 o          1 L6M      -0.555000
@<TRIPOS>BOND
     1     1    14 1   
     2     1    15 1   
     3     1    43 1   
     4     1    44 1   
     5     2    16 1   
     6     2    17 1   
     7     2    37 1   
     8     2    45 1   
     9     3     4 1   
    10     3    17 1   
    11     3    46 1   
    12     3    47 1   
    13     4    32 1   
    14     4    37 1   
    15     4    48 1   
    16     5    18 2   
    17     5    32 1   
    18     5    49 1   
    19     6    32 1   
    20     6    33 1   
    21     6    80 2   
    22     7    18 1   
    23     7    33 2   
    24     7    78 1   
    25     8     9 1   
    26     8    22 1   
    27     8    34 2   
    28     9    10 1   
    29     9    21 1   
    30     9    50 1   
    31    10    11 1   
    32    10    19 1   
    33    10    51 1   
    34    11    52 1   
    35    11    53 1   
    36    11    79 1   
    37    12    13 1   
    38    12    14 1   
    39    12    30 1   
    40    12    54 1   
    41    13    35 1   
    42    13    36 1   
    43    14    55 1   
    44    14    56 1   
    45    15    31 1   
    46    15    39 2   
    47    16    31 1   
    48    16    57 1   
    49    16    58 1   
    50    17    38 1   
    51    17    59 1   
    52    18    60 1   
    53    19    20 1   
    54    19    61 1   
    55    19    62 1   
    56    20    21 1   
    57    20    63 1   
    58    20    64 1   
    59    21    65 1   
    60    21    66 1   
    61    22    23 ar  
    62    22    29 ar  
    63    23    24 ar  
    64    23    67 1   
    65    24    25 ar  
    66    24    68 1   
    67    25    26 1   
    68    25    28 ar  
    69    26    27 1   
    70    26    69 1   
    71    26    70 1   
    72    27    41 1   
    73    27    42 1   
    74    28    29 ar  
    75    28    71 1   
    76    29    72 1   
    77    30    73 1   
    78    30    79 1   
    79    31    74 1   
    80    38    77 1   
    81    40    79 2   
    82    75    78 1   
    83    76    78 1   
@<TRIPOS>SUBSTRUCTURE
     1 L6M         1 TEMP              0 ****  ****    0 ROOT
