@<TRIPOS>MOLECULE
L6N
   27    27     1     0     0
SMALL
No Charge or Current Charge


@<TRIPOS>ATOM
      1 C4          32.4480   -27.3390   -12.1360 c6         1 L6N       0.144300
      2 C5          32.4470   -26.0760   -11.2140 c6         1 L6N       0.148300
      3 C6          33.4600   -24.9920   -11.6930 c3         1 L6N       0.165600
      4 C3          31.3310   -28.3220   -11.6680 c6         1 L6N       0.177300
      5 CAM         34.4630   -22.8840   -11.0510 c3         1 L6N       0.144900
      6 O6          33.5580   -23.9460   -10.7050 os         1 L6N      -0.440000
      7 O5          31.1220   -25.4760   -11.2050 os         1 L6N      -0.471000
      8 C1          30.0980   -26.3380   -10.7070 c6         1 L6N       0.367300
      9 O1          28.9210   -25.5590   -10.7350 oh         1 L6N      -0.706000
     10 C2          29.9600   -27.5930   -11.6310 c6         1 L6N       0.103300
     11 O2          28.9130   -28.4910   -11.1880 oh         1 L6N      -0.724000
     12 O3          31.2580   -29.4710   -12.5310 oh         1 L6N      -0.707000
     13 O4          33.7210   -28.0130   -12.1360 oh         1 L6N      -0.701000
     14 H1          32.2060   -27.0100   -13.1580 h1         1 L6N       0.055700
     15 H2          32.7150   -26.3720   -10.1890 h1         1 L6N       0.060700
     16 H3          34.4410   -25.4600   -11.8410 h1         1 L6N       0.030200
     17 H4          33.1240   -24.5900   -12.6580 h1         1 L6N       0.030200
     18 H5          31.5680   -28.6460   -10.6420 h1         1 L6N       0.053700
     19 H6          34.4860   -22.1280   -10.2570 h1         1 L6N       0.029700
     20 H7          35.4820   -23.2690   -11.1870 h1         1 L6N       0.029700
     21 H8          34.1500   -22.3930   -11.9820 h1         1 L6N       0.029700
     22 H9          30.3310   -26.6390    -9.6740 h2         1 L6N       0.031700
     23 H10         29.2700   -24.6460   -10.8440 ho         1 L6N       0.525000
     24 H11         29.7360   -27.2330   -12.6470 h1         1 L6N       0.065700
     25 H12         28.1450   -27.9120   -10.9570 ho         1 L6N       0.524000
     26 H13         30.3540   -29.8370   -12.3720 ho         1 L6N       0.521000
     27 H14         33.5290   -28.9160   -12.4880 ho         1 L6N       0.508000
@<TRIPOS>BOND
     1     1     2 1   
     2     1     4 1   
     3     1    13 1   
     4     1    14 1   
     5     2     3 1   
     6     2     7 1   
     7     2    15 1   
     8     3     6 1   
     9     3    16 1   
    10     3    17 1   
    11     4    10 1   
    12     4    12 1   
    13     4    18 1   
    14     5     6 1   
    15     5    19 1   
    16     5    20 1   
    17     5    21 1   
    18     7     8 1   
    19     8     9 1   
    20     8    10 1   
    21     8    22 1   
    22     9    23 1   
    23    10    11 1   
    24    10    24 1   
    25    11    25 1   
    26    12    26 1   
    27    13    27 1   
@<TRIPOS>SUBSTRUCTURE
     1 L6N         1 TEMP              0 ****  ****    0 ROOT
