@<TRIPOS>MOLECULE
L6N
   27    27     1     0     0
SMALL
bcc


@<TRIPOS>ATOM
      1 C4          32.4060   -27.3810   -12.0630 c6         1 L6N       0.121100
      2 C5          32.4150   -26.0990   -11.2120 c6         1 L6N       0.125100
      3 C6          33.4650   -25.1200   -11.6910 c3         1 L6N       0.142400
      4 C3          31.2490   -28.2700   -11.6330 c6         1 L6N       0.154100
      5 CAM         34.4520   -23.0620   -11.2240 c3         1 L6N       0.121700
      6 O6          33.5200   -24.0290   -10.8140 os         1 L6N      -0.393600
      7 O5          31.1630   -25.4540   -11.2850 os         1 L6N      -0.424600
      8 C1          30.1090   -26.2270   -10.7680 c6         1 L6N       0.320900
      9 O1          28.9440   -25.4920   -10.8440 oh         1 L6N      -0.583800
     10 C2          29.9440   -27.4830   -11.6150 c6         1 L6N       0.080100
     11 O2          28.9520   -28.3370   -11.1020 oh         1 L6N      -0.601800
     12 O3          31.1790   -29.3620   -12.5130 oh         1 L6N      -0.584800
     13 O4          33.5990   -28.1090   -11.8940 oh         1 L6N      -0.578800
     14 H1          32.2550   -27.0990   -13.1150 h1         1 L6N       0.055700
     15 H2          32.6380   -26.3840   -10.1710 h1         1 L6N       0.060700
     16 H3          34.4380   -25.6270   -11.7400 h1         1 L6N       0.030200
     17 H4          33.2210   -24.7950   -12.7150 h1         1 L6N       0.030200
     18 H5          31.4530   -28.6080   -10.6020 h1         1 L6N       0.053700
     19 H6          34.4380   -22.2500   -10.4980 h1         1 L6N       0.029700
     20 H7          35.4710   -23.4640   -11.2720 h1         1 L6N       0.029700
     21 H8          34.2090   -22.6480   -12.2100 h1         1 L6N       0.029700
     22 H9          30.3400   -26.5160    -9.7270 h2         1 L6N       0.031700
     23 H10         28.8950   -24.8840   -10.0990 ho         1 L6N       0.426000
     24 H11         29.7110   -27.1690   -12.6450 h1         1 L6N       0.065700
     25 H12         28.0910   -27.9360   -11.2540 ho         1 L6N       0.425000
     26 H13         30.4450   -29.9200   -12.2350 ho         1 L6N       0.422000
     27 H14         34.2360   -27.8300   -12.5570 ho         1 L6N       0.409000
@<TRIPOS>BOND
     1     1     2 1   
     2     1     4 1   
     3     1    13 1   
     4     1    14 1   
     5     2     3 1   
     6     2     7 1   
     7     2    15 1   
     8     3     6 1   
     9     3    16 1   
    10     3    17 1   
    11     4    10 1   
    12     4    12 1   
    13     4    18 1   
    14     5     6 1   
    15     5    19 1   
    16     5    20 1   
    17     5    21 1   
    18     7     8 1   
    19     8     9 1   
    20     8    10 1   
    21     8    22 1   
    22     9    23 1   
    23    10    11 1   
    24    10    24 1   
    25    11    25 1   
    26    12    26 1   
    27    13    27 1   
@<TRIPOS>SUBSTRUCTURE
     1 L6N         1 TEMP              0 ****  ****    0 ROOT
