@<TRIPOS>MOLECULE
L6O
   25    26     1     0     0
SMALL
bcc


@<TRIPOS>ATOM
      1 C01         -0.9610     3.8110   -20.0460 c3         1 L6O      -0.077100
      2 C02         -1.2940     2.3450   -19.8630 c5         1 L6O       0.006400
      3 C03         -0.1310     1.5000   -19.3310 c5         1 L6O       0.121800
      4 C05         -0.9750     0.0340   -20.8140 c2         1 L6O       0.699100
      5 C07         -2.0000    -1.3530   -22.5820 ca         1 L6O       0.141600
      6 C08         -2.9710    -2.3510   -22.5570 ca         1 L6O      -0.121500
      7 C09         -3.7490    -2.6120   -23.6740 ca         1 L6O      -0.150500
      8 C10         -3.5600    -1.8460   -24.8080 ca         1 L6O       0.124900
      9 C12         -2.6070    -0.8490   -24.8630 ca         1 L6O      -0.150500
     10 C13         -1.8120    -0.6180   -23.7510 ca         1 L6O      -0.121500
     11 F11         -4.3140    -2.0880   -25.8920 f          1 L6O      -0.141900
     12 N04         -0.2660     0.1300   -19.7640 n2         1 L6O      -0.669900
     13 N06         -1.1960    -1.1440   -21.4520 nu         1 L6O      -0.726600
     14 S14         -1.7220     1.5220   -21.4420 ss         1 L6O      -0.344300
     15 H1          -0.6840     4.2450   -19.0840 hc         1 L6O       0.047367
     16 H2          -0.1230     3.9420   -20.7320 hc         1 L6O       0.047367
     17 H3          -1.8100     4.3770   -20.4270 hc         1 L6O       0.047367
     18 H4          -2.1610     2.2400   -19.2070 h1         1 L6O       0.079700
     19 H5          -0.1040     1.5590   -18.2410 h1         1 L6O       0.068200
     20 H6           0.8210     1.9080   -19.6940 h1         1 L6O       0.068200
     21 H7          -3.1220    -2.9300   -21.6540 ha         1 L6O       0.146500
     22 H8          -4.4980    -3.3930   -23.6540 ha         1 L6O       0.153500
     23 H9          -2.4640    -0.2750   -25.7690 ha         1 L6O       0.153500
     24 H10         -1.0270     0.1260   -23.8120 ha         1 L6O       0.146500
     25 H11         -0.8700    -1.9610   -20.9560 hn         1 L6O       0.452800
@<TRIPOS>BOND
     1     1     2 1   
     2     1    15 1   
     3     1    16 1   
     4     1    17 1   
     5     2     3 1   
     6     2    14 1   
     7     2    18 1   
     8     3    12 1   
     9     3    19 1   
    10     3    20 1   
    11     4    12 2   
    12     4    13 1   
    13     4    14 1   
    14     5     6 ar  
    15     5    10 ar  
    16     5    13 1   
    17     6     7 ar  
    18     6    21 1   
    19     7     8 ar  
    20     7    22 1   
    21     8     9 ar  
    22     8    11 1   
    23     9    10 ar  
    24     9    23 1   
    25    10    24 1   
    26    13    25 1   
@<TRIPOS>SUBSTRUCTURE
     1 L6O         1 TEMP              0 ****  ****    0 ROOT
