@<TRIPOS>MOLECULE
L6O
   25    26     1     0     0
SMALL
No Charge or Current Charge


@<TRIPOS>ATOM
      1 C01          0.4140     3.5070   -19.3070 c3         1 L6O      -0.077100
      2 C02         -0.3910     2.8170   -20.4260 c5         1 L6O       0.054300
      3 C03         -1.7020     2.1130   -19.9650 c5         1 L6O       0.121800
      4 C05         -0.9820     0.7120   -21.5770 c2         1 L6O       0.699100
      5 C07         -2.0230    -1.1300   -22.9320 ca         1 L6O       0.280000
      6 C08         -1.8140    -2.5200   -23.0140 ca         1 L6O      -0.103500
      7 C09         -2.8380    -3.3680   -23.4780 ca         1 L6O      -0.132500
      8 C10         -4.0720    -2.8250   -23.8680 ca         1 L6O       0.160000
      9 C12         -4.2870    -1.4400   -23.8020 ca         1 L6O      -0.132500
     10 C13         -3.2620    -0.5940   -23.3370 ca         1 L6O      -0.103500
     11 F11         -5.0540    -3.6370   -24.3140 f          1 L6O      -0.177000
     12 N04         -2.0590     1.0780   -20.9900 n2         1 L6O      -0.669900
     13 N06         -0.9880    -0.3060   -22.4870 nu         1 L6O      -0.920200
     14 S14          0.5680     1.4430   -21.1730 ss         1 L6O      -0.392200
     15 H1          -0.1680     4.3150   -18.8480 hc         1 L6O       0.047367
     16 H2           0.6860     2.7970   -18.5170 hc         1 L6O       0.047367
     17 H3           1.3390     3.9430   -19.7010 hc         1 L6O       0.047367
     18 H4          -0.6170     3.5510   -21.2120 h1         1 L6O       0.079700
     19 H5          -2.5120     2.8490   -19.8610 h1         1 L6O       0.068200
     20 H6          -1.5730     1.6320   -18.9850 h1         1 L6O       0.068200
     21 H7          -0.8610    -2.9450   -22.7130 ha         1 L6O       0.128500
     22 H8          -2.6760    -4.4420   -23.5350 ha         1 L6O       0.135500
     23 H9          -5.2430    -1.0230   -24.1120 ha         1 L6O       0.135500
     24 H10         -3.4280     0.4790   -23.2970 ha         1 L6O       0.128500
     25 H11         -0.0570    -0.6890   -22.6190 hn         1 L6O       0.508000
@<TRIPOS>BOND
     1     1     2 1   
     2     1    15 1   
     3     1    16 1   
     4     1    17 1   
     5     2     3 1   
     6     2    14 1   
     7     2    18 1   
     8     3    12 1   
     9     3    19 1   
    10     3    20 1   
    11     4    12 2   
    12     4    13 1   
    13     4    14 1   
    14     5     6 ar  
    15     5    10 ar  
    16     5    13 1   
    17     6     7 ar  
    18     6    21 1   
    19     7     8 ar  
    20     7    22 1   
    21     8     9 ar  
    22     8    11 1   
    23     9    10 ar  
    24     9    23 1   
    25    10    24 1   
    26    13    25 1   
@<TRIPOS>SUBSTRUCTURE
     1 L6O         1 TEMP              0 ****  ****    0 ROOT
