@<TRIPOS>MOLECULE
L6P
   45    47     1     0     0
SMALL
abcg2


@<TRIPOS>ATOM
      1 CAA         -2.9310     0.5490     0.0720 ca         1 L6P      -0.000300
      2 CAB         -3.7280    -0.5530    -0.2750 ca         1 L6P      -0.039000
      3 CAC         -3.3540    -1.8550     0.0680 ca         1 L6P      -0.072000
      4 CAD         -2.1800    -2.0780     0.7570 ca         1 L6P      -0.096000
      5 CAE         -1.3750    -1.0020     1.1230 ca         1 L6P      -0.020300
      6 CAF         -1.7590     0.2870     0.7750 ca         1 L6P      -0.119000
      7 CAG         -4.9490    -0.3730    -0.9910 cg         1 L6P       0.346000
      8 CAI         -3.3200     1.9250    -0.3060 cx         1 L6P      -0.093400
      9 CAJ         -2.2720     2.9360    -0.6970 cx         1 L6P      -0.121400
     10 CAK         -3.0010     3.0940     0.5900 cx         1 L6P      -0.121400
     11 CAL         -0.0700    -1.2240     1.8310 c3         1 L6P      -0.136100
     12 CAM          1.0500    -1.2730     0.7990 c          1 L6P       0.606100
     13 CAO          3.1270    -0.1710     0.0440 c6         1 L6P      -0.005600
     14 CAQ          3.0160     2.7600    -0.5300 c6         1 L6P      -0.070400
     15 CAR          3.4970     2.2430     0.8210 c6         1 L6P      -0.075400
     16 CAS          4.0830     0.8370     0.7050 c6         1 L6P      -0.075400
     17 CAT          2.6640     0.3910    -1.3060 c6         1 L6P      -0.075400
     18 CAU          2.0450     1.7790    -1.1770 c6         1 L6P      -0.075400
     19 CAV          3.9010    -1.5180    -0.0850 c          1 L6P       0.733000
     20 NAH         -5.9390    -0.2470    -1.5690 n1         1 L6P      -0.497000
     21 NAN          1.9880    -0.3340     0.9370 ns         1 L6P      -0.459900
     22 OAP          1.0360    -2.1080    -0.0950 o          1 L6P      -0.593100
     23 OAW          4.3830    -1.7880    -1.2000 o          1 L6P      -0.715000
     24 OAX          4.0310    -2.1760     0.9640 o          1 L6P      -0.715000
     25 H1          -3.9890    -2.6850    -0.2130 ha         1 L6P       0.117000
     26 H2          -1.8910    -3.0870     1.0190 ha         1 L6P       0.129000
     27 H3          -1.1190     1.1120     1.0680 ha         1 L6P       0.117000
     28 H4          -4.2550     2.0050    -0.8470 hc         1 L6P       0.084700
     29 H5          -1.2360     2.6200    -0.6650 hc         1 L6P       0.074200
     30 H6          -2.5080     3.6010    -1.5160 hc         1 L6P       0.074200
     31 H7          -3.7500     3.8700     0.6710 hc         1 L6P       0.074200
     32 H8          -2.4700     2.8880     1.5120 hc         1 L6P       0.074200
     33 H9           0.0970    -0.4410     2.5720 hc         1 L6P       0.059200
     34 H10         -0.0830    -2.1770     2.3630 hc         1 L6P       0.059200
     35 H11          2.5510     3.7420    -0.4150 hc         1 L6P       0.022200
     36 H12          3.8780     2.8970    -1.1910 hc         1 L6P       0.022200
     37 H13          4.2510     2.9120     1.2410 hc         1 L6P       0.016700
     38 H14          2.6630     2.2570     1.5310 hc         1 L6P       0.016700
     39 H15          4.3810     0.4630     1.6880 hc         1 L6P       0.057700
     40 H16          4.9920     0.8820     0.0980 hc         1 L6P       0.057700
     41 H17          3.5310     0.4490    -1.9670 hc         1 L6P       0.057700
     42 H18          1.9630    -0.2980    -1.7790 hc         1 L6P       0.057700
     43 H19          1.1260     1.7260    -0.5820 hc         1 L6P       0.016700
     44 H20          1.7440     2.1420    -2.1630 hc         1 L6P       0.016700
     45 H21          1.9060     0.2910     1.7220 hn         1 L6P       0.284500
@<TRIPOS>BOND
     1     1     2 ar  
     2     1     6 ar  
     3     1     8 1   
     4     2     3 ar  
     5     2     7 1   
     6     3     4 ar  
     7     3    25 1   
     8     4     5 ar  
     9     4    26 1   
    10     5     6 ar  
    11     5    11 1   
    12     6    27 1   
    13     7    20 3   
    14     8     9 1   
    15     8    10 1   
    16     8    28 1   
    17     9    10 1   
    18     9    29 1   
    19     9    30 1   
    20    10    31 1   
    21    10    32 1   
    22    11    12 1   
    23    11    33 1   
    24    11    34 1   
    25    12    21 1   
    26    12    22 2   
    27    13    16 1   
    28    13    17 1   
    29    13    19 1   
    30    13    21 1   
    31    14    15 1   
    32    14    18 1   
    33    14    35 1   
    34    14    36 1   
    35    15    16 1   
    36    15    37 1   
    37    15    38 1   
    38    16    39 1   
    39    16    40 1   
    40    17    18 1   
    41    17    41 1   
    42    17    42 1   
    43    18    43 1   
    44    18    44 1   
    45    19    23 1   
    46    19    24 1   
    47    21    45 1   
@<TRIPOS>SUBSTRUCTURE
     1 L6P         1 TEMP              0 ****  ****    0 ROOT
