@<TRIPOS>MOLECULE
L6P
   45    47     1     0     0
SMALL
No Charge or Current Charge


@<TRIPOS>ATOM
      1 CAA         -2.6340     0.6860     0.1480 ca         1 L6P      -0.000300
      2 CAB         -3.5200    -0.2720    -0.4230 ca         1 L6P      -0.039000
      3 CAC         -3.2720    -1.6490    -0.2520 ca         1 L6P      -0.072000
      4 CAD         -2.1590    -2.0910     0.4770 ca         1 L6P      -0.096000
      5 CAE         -1.2800    -1.1610     1.0510 ca         1 L6P      -0.020300
      6 CAF         -1.5230     0.2140     0.8850 ca         1 L6P      -0.119000
      7 CAG         -4.6820     0.1090    -1.1840 cg         1 L6P       0.346000
      8 CAI         -2.8470     2.1870    -0.0080 cx         1 L6P      -0.093400
      9 CAJ         -1.6960     3.1680    -0.0930 cx         1 L6P      -0.121400
     10 CAK         -2.5840     3.1540     1.1270 cx         1 L6P      -0.121400
     11 CAL         -0.0560    -1.6290     1.8270 c3         1 L6P      -0.136100
     12 CAM          1.1650    -1.6350     0.9040 c          1 L6P       0.606100
     13 CAO          3.1210    -0.1500     0.1380 c6         1 L6P      -0.005600
     14 CAQ          2.2840     2.5670    -1.0050 c6         1 L6P      -0.070400
     15 CAR          2.7000     2.4050     0.4740 c6         1 L6P      -0.075400
     16 CAS          3.6860     1.2170     0.6540 c6         1 L6P      -0.075400
     17 CAT          2.7260     0.0800    -1.3660 c6         1 L6P      -0.075400
     18 CAU          1.7190     1.2430    -1.5680 c6         1 L6P      -0.075400
     19 CAV          4.2680    -1.2370     0.3000 c          1 L6P       0.733000
     20 NAH         -5.6280     0.4040    -1.8030 n1         1 L6P      -0.497000
     21 NAN          1.9070    -0.4730     0.9410 ns         1 L6P      -0.459900
     22 OAP          1.4200    -2.5750     0.1630 o          1 L6P      -0.593100
     23 OAW          4.5030    -1.9830    -0.6430 o          1 L6P      -0.715000
     24 OAX          4.5790    -1.5490     1.4440 o          1 L6P      -0.715000
     25 H1          -3.9460    -2.3840    -0.6890 ha         1 L6P       0.117000
     26 H2          -1.9800    -3.1580     0.5920 ha         1 L6P       0.129000
     27 H3          -0.8310     0.9200     1.3350 ha         1 L6P       0.117000
     28 H4          -3.6970     2.4410    -0.6350 hc         1 L6P       0.084700
     29 H5          -0.6810     2.7940     0.0120 hc         1 L6P       0.074200
     30 H6          -1.7960     4.0030    -0.7820 hc         1 L6P       0.074200
     31 H7          -3.2790     3.9800     1.2570 hc         1 L6P       0.074200
     32 H8          -2.1700     2.7650     2.0540 hc         1 L6P       0.074200
     33 H9           0.1130    -0.9380     2.6610 hc         1 L6P       0.059200
     34 H10         -0.2210    -2.6420     2.2140 hc         1 L6P       0.059200
     35 H11          1.5370     3.3660    -1.1010 hc         1 L6P       0.022200
     36 H12          3.1530     2.8780    -1.6000 hc         1 L6P       0.022200
     37 H13          3.1710     3.3320     0.8260 hc         1 L6P       0.016700
     38 H14          1.8070     2.2590     1.0980 hc         1 L6P       0.016700
     39 H15          3.9530     1.1320     1.7170 hc         1 L6P       0.057700
     40 H16          4.6240     1.4460     0.1290 hc         1 L6P       0.057700
     41 H17          3.6300     0.2850    -1.9560 hc         1 L6P       0.057700
     42 H18          2.2980    -0.8400    -1.7870 hc         1 L6P       0.057700
     43 H19          0.7630     1.0060    -1.0820 hc         1 L6P       0.016700
     44 H20          1.5000     1.3620    -2.6370 hc         1 L6P       0.016700
     45 H21          1.5840     0.2310     1.5900 hn         1 L6P       0.284500
@<TRIPOS>BOND
     1     1     2 ar  
     2     1     6 ar  
     3     1     8 1   
     4     2     3 ar  
     5     2     7 1   
     6     3     4 ar  
     7     3    25 1   
     8     4     5 ar  
     9     4    26 1   
    10     5     6 ar  
    11     5    11 1   
    12     6    27 1   
    13     7    20 3   
    14     8     9 1   
    15     8    10 1   
    16     8    28 1   
    17     9    10 1   
    18     9    29 1   
    19     9    30 1   
    20    10    31 1   
    21    10    32 1   
    22    11    12 1   
    23    11    33 1   
    24    11    34 1   
    25    12    21 1   
    26    12    22 2   
    27    13    16 1   
    28    13    17 1   
    29    13    19 1   
    30    13    21 1   
    31    14    15 1   
    32    14    18 1   
    33    14    35 1   
    34    14    36 1   
    35    15    16 1   
    36    15    37 1   
    37    15    38 1   
    38    16    39 1   
    39    16    40 1   
    40    17    18 1   
    41    17    41 1   
    42    17    42 1   
    43    18    43 1   
    44    18    44 1   
    45    19    23 1   
    46    19    24 1   
    47    21    45 1   
@<TRIPOS>SUBSTRUCTURE
     1 L6P         1 TEMP              0 ****  ****    0 ROOT
