@<TRIPOS>MOLECULE
L6R
   40    41     1     0     0
SMALL
abcg2


@<TRIPOS>ATOM
      1 N1           7.2230     2.6630    18.4100 nb         1 L6R      -0.646000
      2 C4           8.7500     0.6540    21.9660 c          1 L6R       0.606100
      3 C5           7.4680     0.7450    19.8350 ca         1 L6R      -0.079000
      4 C6           7.8260     2.0280    19.4160 ca         1 L6R       0.329900
      5 C7           6.2370     2.0270    17.7730 ca         1 L6R       0.314900
      6 C8           5.8240     0.7470    18.1120 ca         1 L6R      -0.143000
      7 C13         13.0820     0.2110    21.9090 ca         1 L6R      -0.099000
      8 C15         12.4910    -2.0350    21.3650 ca         1 L6R       0.124000
      9 CL          12.9220    -3.6070    20.7190 cl         1 L6R      -0.212000
     10 C14         13.4440    -1.0280    21.3910 ca         1 L6R      -0.096000
     11 C12         11.7980     0.4310    22.3900 ca         1 L6R      -0.090000
     12 C16         11.2020    -1.8330    21.8400 ca         1 L6R      -0.102000
     13 C11         10.8470    -0.5900    22.3610 ca         1 L6R      -0.079300
     14 C3           9.4370    -0.3630    22.8800 c3         1 L6R      -0.088400
     15 C2           9.3960     0.0950    24.3420 c3         1 L6R      -0.062400
     16 C1           9.9750    -0.9380    25.3050 c3         1 L6R      -0.077400
     17 C            9.9100    -0.4770    26.7580 c3         1 L6R      -0.088100
     18 O            8.7860     1.8590    22.1750 o          1 L6R      -0.575100
     19 N            8.1310     0.0910    20.8890 ns         1 L6R      -0.149000
     20 C9           6.4350     0.0720    19.1630 ca         1 L6R      -0.084300
     21 H1           8.6260     2.5510    19.9190 h4         1 L6R       0.045100
     22 H2           5.7610     2.5590    16.9560 h4         1 L6R       0.022100
     23 H3           5.0210     0.2740    17.5620 ha         1 L6R       0.121000
     24 H4           6.8120    -2.0330    19.4100 hc         1 L6R       0.046367
     25 H5           5.7320    -1.3460    20.6170 hc         1 L6R       0.046367
     26 H6           5.1510    -1.6300    18.9680 hc         1 L6R       0.046367
     27 H8          14.4430    -1.2080    21.0170 ha         1 L6R       0.132000
     28 H9          11.5330     1.4020    22.7850 ha         1 L6R       0.134000
     29 H10         10.4800    -2.6380    21.8080 ha         1 L6R       0.123000
     30 H11          8.8990    -1.3100    22.8020 hc         1 L6R       0.056700
     31 H12          9.9350     1.0400    24.4430 hc         1 L6R       0.057200
     32 H13          8.3560     0.3000    24.6100 hc         1 L6R       0.057200
     33 H14          9.4310    -1.8810    25.1910 hc         1 L6R       0.040200
     34 H15         11.0140    -1.1470    25.0340 hc         1 L6R       0.040200
     35 H16         10.3270    -1.2290    27.4320 hc         1 L6R       0.034367
     36 H17         10.4750     0.4480    26.8990 hc         1 L6R       0.034367
     37 H18          8.8780    -0.2870    27.0650 hc         1 L6R       0.034367
     38 H19          8.1050    -0.9170    20.8720 hn         1 L6R       0.152000
     39 C10          6.0060    -1.3090    19.5600 c3         1 L6R      -0.051800
     40 H7          13.8130     1.0090    21.9350 ha         1 L6R       0.123000
@<TRIPOS>BOND
     1     1     4 ar  
     2     1     5 ar  
     3     2    14 1   
     4     2    18 2   
     5     2    19 1   
     6     3     4 ar  
     7     3    19 1   
     8     3    20 ar  
     9     4    21 1   
    10     5     6 ar  
    11     5    22 1   
    12     6    20 ar  
    13     6    23 1   
    14     7    10 ar  
    15     7    11 ar  
    16     7    40 1   
    17     8     9 1   
    18     8    10 ar  
    19     8    12 ar  
    20    10    27 1   
    21    11    13 ar  
    22    11    28 1   
    23    12    13 ar  
    24    12    29 1   
    25    13    14 1   
    26    14    15 1   
    27    14    30 1   
    28    15    16 1   
    29    15    31 1   
    30    15    32 1   
    31    16    17 1   
    32    16    33 1   
    33    16    34 1   
    34    17    35 1   
    35    17    36 1   
    36    17    37 1   
    37    19    38 1   
    38    20    39 1   
    39    24    39 1   
    40    25    39 1   
    41    26    39 1   
@<TRIPOS>SUBSTRUCTURE
     1 L6R         1 TEMP              0 ****  ****    0 ROOT
