@<TRIPOS>MOLECULE
L6R
   40    41     1     0     0
SMALL
No Charge or Current Charge


@<TRIPOS>ATOM
      1 N1           6.5870     2.8410    18.5780 nb         1 L6R      -0.646000
      2 C4           9.0620     0.7530    21.6970 c          1 L6R       0.606100
      3 C5           7.2410     0.8800    19.8810 ca         1 L6R      -0.079000
      4 C6           7.3380     2.2550    19.5420 ca         1 L6R       0.329900
      5 C7           5.7030     2.0690    17.9110 ca         1 L6R       0.314900
      6 C8           5.5330     0.7010    18.1770 ca         1 L6R      -0.143000
      7 C13         13.4630    -0.0260    22.2440 ca         1 L6R      -0.099000
      8 C15         12.7320    -2.2040    21.4550 ca         1 L6R       0.124000
      9 Cl          13.1040    -3.7750    20.7570 cl         1 L6R      -0.212000
     10 C14         13.7630    -1.2800    21.6880 ca         1 L6R      -0.096000
     11 C12         12.1350     0.3020    22.5680 ca         1 L6R      -0.090000
     12 C16         11.4050    -1.8790    21.7780 ca         1 L6R      -0.102000
     13 C11         11.0930    -0.6230    22.3400 ca         1 L6R      -0.079300
     14 C3           9.6380    -0.2830    22.6910 c3         1 L6R      -0.088400
     15 C2           9.4510     0.1800    24.1630 c3         1 L6R      -0.062400
     16 C1           9.9020    -0.8690    25.2060 c3         1 L6R      -0.077400
     17 C            9.6730    -0.4110    26.6590 c3         1 L6R      -0.088100
     18 O            9.4990     1.8960    21.6220 o          1 L6R      -0.575100
     19 N            8.0320     0.2690    20.8990 ns         1 L6R      -0.149000
     20 C9           6.3080     0.0850    19.1760 ca         1 L6R      -0.084300
     21 H1           8.0260     2.9260    20.0500 h4         1 L6R       0.045100
     22 H2           5.1110     2.5620    17.1410 h4         1 L6R       0.022100
     23 H3           4.8030     0.1340    17.6060 ha         1 L6R       0.121000
     24 H4           7.0690    -1.9490    19.3180 hc         1 L6R       0.046367
     25 H5           5.8120    -1.5630    20.5090 hc         1 L6R       0.046367
     26 H6           5.3760    -1.8580    18.8220 hc         1 L6R       0.046367
     27 H8          14.7890    -1.5360    21.4360 ha         1 L6R       0.132000
     28 H9          11.9200     1.2800    22.9920 ha         1 L6R       0.134000
     29 H10         10.6210    -2.6080    21.5910 ha         1 L6R       0.123000
     30 H11          9.0400    -1.1970    22.5810 hc         1 L6R       0.056700
     31 H12          9.9950     1.1180    24.3330 hc         1 L6R       0.057200
     32 H13          8.3900     0.4060    24.3280 hc         1 L6R       0.057200
     33 H14          9.3580    -1.8070    25.0380 hc         1 L6R       0.040200
     34 H15         10.9680    -1.0900    25.0710 hc         1 L6R       0.040200
     35 H16         10.0070    -1.1840    27.3610 hc         1 L6R       0.034367
     36 H17         10.2340     0.5080    26.8690 hc         1 L6R       0.034367
     37 H18          8.6090    -0.2170    26.8420 hc         1 L6R       0.034367
     38 H19          7.7980    -0.7000    21.0710 hn         1 L6R       0.152000
     39 C10          6.1320    -1.4020    19.4730 c3         1 L6R      -0.051800
     40 H7          14.2600     0.6940    22.4230 ha         1 L6R       0.123000
@<TRIPOS>BOND
     1     1     4 ar  
     2     1     5 ar  
     3     2    14 1   
     4     2    18 2   
     5     2    19 1   
     6     3     4 ar  
     7     3    19 1   
     8     3    20 ar  
     9     4    21 1   
    10     5     6 ar  
    11     5    22 1   
    12     6    20 ar  
    13     6    23 1   
    14     7    10 ar  
    15     7    11 ar  
    16     7    40 1   
    17     8     9 1   
    18     8    10 ar  
    19     8    12 ar  
    20    10    27 1   
    21    11    13 ar  
    22    11    28 1   
    23    12    13 ar  
    24    12    29 1   
    25    13    14 1   
    26    14    15 1   
    27    14    30 1   
    28    15    16 1   
    29    15    31 1   
    30    15    32 1   
    31    16    17 1   
    32    16    33 1   
    33    16    34 1   
    34    17    35 1   
    35    17    36 1   
    36    17    37 1   
    37    19    38 1   
    38    20    39 1   
    39    24    39 1   
    40    25    39 1   
    41    26    39 1   
@<TRIPOS>SUBSTRUCTURE
     1 L6R         1 TEMP              0 ****  ****    0 ROOT
