@<TRIPOS>MOLECULE
L6S
   27    27     1     0     0
SMALL
No Charge or Current Charge


@<TRIPOS>ATOM
      1 O1S         14.4980     9.0120     4.8120 o          1 L6S      -0.708533
      2 O2S         13.0910    10.6550     6.0050 o          1 L6S      -0.708533
      3 O3S         12.0910     8.5670     5.1500 o          1 L6S      -0.708533
      4 C1          13.6600     5.5920    10.1520 c6         1 L6S       0.390300
      5 C2          12.8340     5.8250    11.4720 c6         1 L6S       0.156300
      6 C3          12.7700     7.3460    11.8170 c6         1 L6S       0.135300
      7 C4          12.2220     8.1570    10.6030 c6         1 L6S       0.112300
      8 C5          13.1080     7.8370     9.3500 c6         1 L6S       0.136300
      9 C6          12.6220     8.5710     8.0620 c3         1 L6S       0.221600
     10 O2          13.3280     5.0770    12.6100 oh         1 L6S      -0.712000
     11 O3          11.9220     7.5620    12.9610 oh         1 L6S      -0.722000
     12 O4          10.8260     7.8240    10.4090 oh         1 L6S      -0.706000
     13 O5          13.1270     6.4030     9.0860 os         1 L6S      -0.441000
     14 O6          13.6450     8.5060     7.0520 os         1 L6S      -0.590700
     15 S1          13.3010     9.2500     5.6310 s6         1 L6S       1.498300
     16 H2          11.8080     5.4940    11.2520 h1         1 L6S       0.067700
     17 H3          13.7910     7.6980    12.0350 h1         1 L6S       0.055700
     18 H4          12.3200     9.2290    10.8320 h1         1 L6S       0.028700
     19 H5          14.1310     8.1860     9.5520 h1         1 L6S       0.060700
     20 H61         11.6900     8.1020     7.7180 h1         1 L6S       0.036700
     21 H62         12.4060     9.6150     8.3240 h1         1 L6S       0.036700
     22 HO2         13.0040     5.5850    13.3930 ho         1 L6S       0.508000
     23 HO3         11.0260     7.6960    12.5660 ho         1 L6S       0.499000
     24 HO4         10.4220     8.5300     9.8520 ho         1 L6S       0.506000
     25 O1          15.0440     5.9340    10.2820 oh         1 L6S      -0.738000
     26 HO1         15.3990     5.8640     9.3680 ho         1 L6S       0.518000
     27 H1          13.5710     4.5300     9.8690 h2         1 L6S       0.068700
@<TRIPOS>BOND
     1     1    15 1   
     2     2    15 1   
     3     3    15 1   
     4     4     5 1   
     5     4    13 1   
     6     4    25 1   
     7     4    27 1   
     8     5     6 1   
     9     5    10 1   
    10     5    16 1   
    11     6     7 1   
    12     6    11 1   
    13     6    17 1   
    14     7     8 1   
    15     7    12 1   
    16     7    18 1   
    17     8     9 1   
    18     8    13 1   
    19     8    19 1   
    20     9    14 1   
    21     9    20 1   
    22     9    21 1   
    23    10    22 1   
    24    11    23 1   
    25    12    24 1   
    26    14    15 1   
    27    25    26 1   
@<TRIPOS>SUBSTRUCTURE
     1 L6S         1 TEMP              0 ****  ****    0 ROOT
