@<TRIPOS>MOLECULE
L6S
   27    27     1     0     0
SMALL
abcg2


@<TRIPOS>ATOM
      1 O1S         14.5870     8.9950     5.0030 o          1 L6S      -0.708533
      2 O2S         12.7280    10.4230     5.7690 o          1 L6S      -0.708533
      3 O3S         12.2960     8.0960     5.1230 o          1 L6S      -0.708533
      4 C1          13.6720     5.7330    10.0880 c6         1 L6S       0.390300
      5 C2          12.7970     5.8640    11.3350 c6         1 L6S       0.156300
      6 C3          12.6620     7.3290    11.7380 c6         1 L6S       0.135300
      7 C4          12.1450     8.1560    10.5600 c6         1 L6S       0.112300
      8 C5          13.0810     7.9260     9.3710 c6         1 L6S       0.136300
      9 C6          12.6050     8.6470     8.1290 c3         1 L6S       0.221600
     10 O2          13.3620     5.0810    12.3550 oh         1 L6S      -0.712000
     11 O3          11.8120     7.3770    12.8570 oh         1 L6S      -0.722000
     12 O4          10.8190     7.7740    10.2840 oh         1 L6S      -0.706000
     13 O5          13.1750     6.5460     9.0600 os         1 L6S      -0.441000
     14 O6          13.6320     8.5730     7.1540 os         1 L6S      -0.590700
     15 S1          13.2690     9.0680     5.6280 s6         1 L6S       1.498300
     16 H2          11.8020     5.4860    11.0610 h1         1 L6S       0.067700
     17 H3          13.6600     7.7140    11.9900 h1         1 L6S       0.055700
     18 H4          12.2010     9.2200    10.8330 h1         1 L6S       0.028700
     19 H5          14.0640     8.3330     9.6430 h1         1 L6S       0.060700
     20 H61         11.6780     8.1940     7.7620 h1         1 L6S       0.036700
     21 H62         12.3940     9.6900     8.3890 h1         1 L6S       0.036700
     22 HO2         12.7830     5.1410    13.1220 ho         1 L6S       0.508000
     23 HO3         11.9210     8.2280    13.2930 ho         1 L6S       0.499000
     24 HO4         10.3690     8.4980     9.8400 ho         1 L6S       0.506000
     25 O1          14.9820     6.0450    10.4300 oh         1 L6S      -0.738000
     26 HO1         15.5630     5.7980     9.7020 ho         1 L6S       0.518000
     27 H1          13.5980     4.7120     9.6940 h2         1 L6S       0.068700
@<TRIPOS>BOND
     1     1    15 1   
     2     2    15 1   
     3     3    15 1   
     4     4     5 1   
     5     4    13 1   
     6     4    25 1   
     7     4    27 1   
     8     5     6 1   
     9     5    10 1   
    10     5    16 1   
    11     6     7 1   
    12     6    11 1   
    13     6    17 1   
    14     7     8 1   
    15     7    12 1   
    16     7    18 1   
    17     8     9 1   
    18     8    13 1   
    19     8    19 1   
    20     9    14 1   
    21     9    20 1   
    22     9    21 1   
    23    10    22 1   
    24    11    23 1   
    25    12    24 1   
    26    14    15 1   
    27    25    26 1   
@<TRIPOS>SUBSTRUCTURE
     1 L6S         1 TEMP              0 ****  ****    0 ROOT
