@<TRIPOS>MOLECULE
L6T
   81    82     1     0     0
SMALL
No Charge or Current Charge


@<TRIPOS>ATOM
      1 C1           4.0920    -1.1370     1.3250 c6         1 L6T       0.353300
      2 C2           5.4370    -1.8920     1.0250 c6         1 L6T       0.124300
      3 C3           5.3350    -2.7220    -0.2930 c6         1 L6T       0.137300
      4 C4           4.0620    -3.6220    -0.2950 c6         1 L6T       0.155300
      5 C5           2.8430    -2.6890    -0.0670 c6         1 L6T       0.158300
      6 C6           1.4490    -3.3670    -0.0970 c3         1 L6T       0.174600
      7 CAA          2.7350     0.7780     0.8000 c6         1 L6T       0.349300
      8 CAO          4.0270     2.8540     0.7190 c6         1 L6T       0.168300
      9 CAP          4.5310     4.0010     1.6560 c3         1 L6T       0.169600
     10 CAR          3.1860     3.3930    -0.4800 c6         1 L6T       0.147300
     11 CAT          2.6640     2.1920    -1.3190 c6         1 L6T       0.140300
     12 CAV          1.8510     1.2160    -0.4250 c6         1 L6T       0.123300
     13 CAX         -0.9040    -2.7920    -0.1010 c3         1 L6T       0.164600
     14 CAY         -1.8250    -1.5580    -0.1060 c3         1 L6T      -0.081400
     15 CAZ         -3.3250    -1.9250    -0.0870 c3         1 L6T      -0.074400
     16 CBA         -4.2500    -0.6880    -0.0920 c3         1 L6T      -0.073400
     17 CBB         -5.7500    -1.0550    -0.0730 c3         1 L6T      -0.075400
     18 CBC         -6.6750     0.1810    -0.0780 c3         1 L6T      -0.073400
     19 CBD         -8.1750    -0.1860    -0.0590 c3         1 L6T      -0.074400
     20 CBE         -9.1000     1.0500    -0.0630 c3         1 L6T      -0.073400
     21 CBF        -10.6000     0.6830    -0.0440 c3         1 L6T      -0.075400
     22 CBG        -11.5250     1.9200    -0.0490 c3         1 L6T      -0.075400
     23 CBH        -13.0250     1.5520    -0.0300 c3         1 L6T      -0.074400
     24 CBI        -13.9490     2.7860    -0.0350 c3         1 L6T      -0.088100
     25 O1           3.8570    -0.0470     0.4150 os         1 L6T      -0.481000
     26 O2           6.5620    -0.9840     0.9530 oh         1 L6T      -0.707000
     27 O3           6.5220    -3.5170    -0.4820 oh         1 L6T      -0.672000
     28 O4           3.9810    -4.3400    -1.5400 oh         1 L6T      -0.716000
     29 O5           2.9780    -2.0420     1.2250 os         1 L6T      -0.470000
     30 O6           0.4500    -2.3200    -0.1060 os         1 L6T      -0.473000
     31 OAN          3.2280     1.9320     1.5140 os         1 L6T      -0.457000
     32 OAQ          5.2700     3.5250     2.8010 oh         1 L6T      -0.715000
     33 OAS          3.9430     4.2790    -1.3260 oh         1 L6T      -0.718000
     34 OAU          1.8520     2.6490    -2.4160 oh         1 L6T      -0.671000
     35 OAW          1.3610     0.1130    -1.2350 oh         1 L6T      -0.723000
     36 H1           4.1450    -0.7400     2.3510 h2         1 L6T       0.078700
     37 H21          5.5950    -2.6000     1.8520 h1         1 L6T       0.053700
     38 H31          5.2380    -2.0060    -1.1250 h1         1 L6T       0.070700
     39 H41          4.1230    -4.3310     0.5450 h1         1 L6T       0.050700
     40 H5           2.8460    -1.9340    -0.8640 h1         1 L6T       0.085700
     41 H62          1.3650    -3.9840    -1.0000 h1         1 L6T       0.042200
     42 H61          1.3410    -4.0160     0.7820 h1         1 L6T       0.042200
     43 HAA          2.0770     0.2120     1.4770 h2         1 L6T       0.082700
     44 HAO          4.9090     2.3230     0.3330 h1         1 L6T       0.082700
     45 HAP          5.1600     4.6780     1.0630 h1         1 L6T       0.034700
     46 H63          3.6570     4.5790     1.9870 h1         1 L6T       0.034700
     47 HAR          2.3160     3.9300    -0.0710 h1         1 L6T       0.047700
     48 HAT          3.5350     1.6410    -1.7080 h1         1 L6T       0.068700
     49 HAV          0.9920     1.7690    -0.0140 h1         1 L6T       0.053700
     50 HAX         -1.1010    -3.3960     0.7950 h1         1 L6T       0.022700
     51 H64         -1.1050    -3.4070    -0.9890 h1         1 L6T       0.022700
     52 H65         -1.5940    -0.9370     0.7690 hc         1 L6T       0.050200
     53 HAY         -1.6110    -0.9560    -0.9980 hc         1 L6T       0.050200
     54 H66         -3.5530    -2.5500    -0.9600 hc         1 L6T       0.038700
     55 HAZ         -3.5360    -2.5300     0.8040 hc         1 L6T       0.038700
     56 H67         -4.0210    -0.0640     0.7810 hc         1 L6T       0.039200
     57 HBA         -4.0380    -0.0840    -0.9830 hc         1 L6T       0.039200
     58 H68         -5.9790    -1.6800    -0.9460 hc         1 L6T       0.037200
     59 HBB         -5.9610    -1.6600     0.8180 hc         1 L6T       0.037200
     60 HBC         -6.4460     0.8060     0.7950 hc         1 L6T       0.038200
     61 H69         -6.4630     0.7860    -0.9690 hc         1 L6T       0.038200
     62 H7A         -8.4040    -0.8110    -0.9310 hc         1 L6T       0.037200
     63 HBD         -8.3860    -0.7910     0.8320 hc         1 L6T       0.037200
     64 HBE         -8.8710     1.6750     0.8090 hc         1 L6T       0.037200
     65 H7B         -8.8890     1.6550    -0.9550 hc         1 L6T       0.037200
     66 H7C        -10.8290     0.0590    -0.9170 hc         1 L6T       0.036700
     67 HBF        -10.8110     0.0790     0.8470 hc         1 L6T       0.036700
     68 H7D        -11.2960     2.5440     0.8230 hc         1 L6T       0.037200
     69 HBG        -11.3140     2.5240    -0.9400 hc         1 L6T       0.037200
     70 HBH        -13.2580     0.9290    -0.9030 hc         1 L6T       0.036200
     71 H7E        -13.2410     0.9500     0.8610 hc         1 L6T       0.036200
     72 H7G        -13.7640     3.4130     0.8460 hc         1 L6T       0.031367
     73 HBI        -13.7820     3.3920    -0.9340 hc         1 L6T       0.031367
     74 H7F        -15.0000     2.4760    -0.0210 hc         1 L6T       0.031367
     75 H22          6.2130    -0.1470     0.5640 ho         1 L6T       0.517000
     76 H32          7.2650    -2.9500    -0.1660 ho         1 L6T       0.466000
     77 H42          4.9110    -4.6100    -1.7340 ho         1 L6T       0.525000
     78 HAQ          5.4790     4.3130     3.3560 ho         1 L6T       0.502000
     79 HAS          3.4450     4.2930    -2.1800 ho         1 L6T       0.524000
     80 HAU          1.3140     1.8590    -2.6610 ho         1 L6T       0.466000
     81 HAW          1.0470    -0.6120    -0.6310 ho         1 L6T       0.532000
@<TRIPOS>BOND
     1     1     2 1   
     2     1    25 1   
     3     1    29 1   
     4     1    36 1   
     5     2     3 1   
     6     2    26 1   
     7     2    37 1   
     8     3     4 1   
     9     3    27 1   
    10     3    38 1   
    11     4     5 1   
    12     4    28 1   
    13     4    39 1   
    14     5     6 1   
    15     5    29 1   
    16     5    40 1   
    17     6    30 1   
    18     6    41 1   
    19     6    42 1   
    20     7    12 1   
    21     7    25 1   
    22     7    31 1   
    23     7    43 1   
    24     8     9 1   
    25     8    10 1   
    26     8    31 1   
    27     8    44 1   
    28     9    32 1   
    29     9    45 1   
    30     9    46 1   
    31    10    11 1   
    32    10    33 1   
    33    10    47 1   
    34    11    12 1   
    35    11    34 1   
    36    11    48 1   
    37    12    35 1   
    38    12    49 1   
    39    13    14 1   
    40    13    30 1   
    41    13    50 1   
    42    13    51 1   
    43    14    15 1   
    44    14    52 1   
    45    14    53 1   
    46    15    16 1   
    47    15    54 1   
    48    15    55 1   
    49    16    17 1   
    50    16    56 1   
    51    16    57 1   
    52    17    18 1   
    53    17    58 1   
    54    17    59 1   
    55    18    19 1   
    56    18    60 1   
    57    18    61 1   
    58    19    20 1   
    59    19    62 1   
    60    19    63 1   
    61    20    21 1   
    62    20    64 1   
    63    20    65 1   
    64    21    22 1   
    65    21    66 1   
    66    21    67 1   
    67    22    23 1   
    68    22    68 1   
    69    22    69 1   
    70    23    24 1   
    71    23    70 1   
    72    23    71 1   
    73    24    72 1   
    74    24    73 1   
    75    24    74 1   
    76    26    75 1   
    77    27    76 1   
    78    28    77 1   
    79    32    78 1   
    80    33    79 1   
    81    34    80 1   
    82    35    81 1   
@<TRIPOS>SUBSTRUCTURE
     1 L6T         1 TEMP              0 ****  ****    0 ROOT
