@<TRIPOS>MOLECULE
L6T
   81    82     1     0     0
SMALL
bcc


@<TRIPOS>ATOM
      1 C1           3.6180    -0.9850     1.4220 c6         1 L6T       0.306900
      2 C2           4.8980    -1.8250     1.4070 c6         1 L6T       0.101100
      3 C3           5.0060    -2.6320     0.1180 c6         1 L6T       0.114100
      4 C4           3.7220    -3.4240    -0.1190 c6         1 L6T       0.132100
      5 C5           2.5510    -2.4470    -0.1070 c6         1 L6T       0.135100
      6 C6           1.1990    -3.0920    -0.3030 c3         1 L6T       0.151400
      7 CAA          2.8360     1.1090     0.6640 c6         1 L6T       0.302900
      8 CAO          4.5590     2.7440     0.7420 c6         1 L6T       0.145100
      9 CAP          5.0680     3.8310     1.6650 c3         1 L6T       0.146400
     10 CAR          4.1620     3.3040    -0.6240 c6         1 L6T       0.124100
     11 CAT          3.5130     2.2130    -1.4690 c6         1 L6T       0.117100
     12 CAV          2.3510     1.5960    -0.7030 c6         1 L6T       0.100100
     13 CAX         -1.0850    -2.5260    -0.4060 c3         1 L6T       0.141400
     14 CAY         -2.0270    -1.3530    -0.5900 c3         1 L6T      -0.081400
     15 CAZ         -3.4850    -1.7720    -0.4400 c3         1 L6T      -0.074400
     16 CBA         -4.4650    -0.6210    -0.6320 c3         1 L6T      -0.073400
     17 CBB         -5.9020    -1.0160    -0.3190 c3         1 L6T      -0.075400
     18 CBC         -6.9020     0.1220    -0.4850 c3         1 L6T      -0.073400
     19 CBD         -8.3170    -0.2730    -0.0800 c3         1 L6T      -0.074400
     20 CBE         -9.3320     0.8550    -0.2160 c3         1 L6T      -0.073400
     21 CBF        -10.7310     0.4530     0.2340 c3         1 L6T      -0.075400
     22 CBG        -11.7550     1.5760     0.1240 c3         1 L6T      -0.075400
     23 CBH        -13.1450     1.1680     0.5950 c3         1 L6T      -0.074400
     24 CBI        -14.1630     2.2950     0.4950 c3         1 L6T      -0.088100
     25 O1           3.7280     0.0460     0.4900 os         1 L6T      -0.434600
     26 O2           6.0560    -1.0410     1.5310 oh         1 L6T      -0.584800
     27 O3           6.0680    -3.5560     0.1720 oh         1 L6T      -0.609800
     28 O4           3.7410    -4.0740    -1.3650 oh         1 L6T      -0.593800
     29 O5           2.5090    -1.7890     1.1520 os         1 L6T      -0.423600
     30 O6           0.2460    -2.0630    -0.4080 os         1 L6T      -0.426600
     31 OAN          3.4280     2.1570     1.3680 os         1 L6T      -0.410600
     32 OAQ          5.5030     3.2430     2.8680 oh         1 L6T      -0.592800
     33 OAS          5.3210     3.8090    -1.2400 oh         1 L6T      -0.595800
     34 OAU          3.0920     2.8130    -2.6730 oh         1 L6T      -0.608800
     35 OAW          1.8000     0.5750    -1.4930 oh         1 L6T      -0.600800
     36 H1           3.4510    -0.5840     2.4300 h2         1 L6T       0.078700
     37 H21          4.8080    -2.5350     2.2410 h1         1 L6T       0.053700
     38 H31          5.1360    -1.9380    -0.7270 h1         1 L6T       0.070700
     39 H41          3.5940    -4.1450     0.7040 h1         1 L6T       0.050700
     40 H5           2.7060    -1.7220    -0.9140 h1         1 L6T       0.085700
     41 H62          1.2060    -3.7130    -1.2070 h1         1 L6T       0.042200
     42 H61          0.9740    -3.7560     0.5450 h1         1 L6T       0.042200
     43 HAA          1.9760     0.7990     1.2710 h2         1 L6T       0.082700
     44 HAO          5.3480     1.9920     0.6030 h1         1 L6T       0.082700
     45 HAP          5.8800     4.3630     1.1600 h1         1 L6T       0.034700
     46 H63          4.2630     4.5600     1.8340 h1         1 L6T       0.034700
     47 HAR          3.4180     4.1020    -0.4670 h1         1 L6T       0.047700
     48 HAT          4.2660     1.4350    -1.6630 h1         1 L6T       0.068700
     49 HAV          1.6090     2.3850    -0.5090 h1         1 L6T       0.053700
     50 HAX         -1.3050    -3.0370     0.5420 h1         1 L6T       0.022700
     51 H64         -1.2400    -3.2630    -1.2070 h1         1 L6T       0.022700
     52 H65         -1.7950    -0.5850     0.1540 hc         1 L6T       0.050200
     53 HAY         -1.8640    -0.9030    -1.5740 hc         1 L6T       0.050200
     54 H66         -3.7180    -2.5700    -1.1530 hc         1 L6T       0.038700
     55 HAZ         -3.6320    -2.2020     0.5560 hc         1 L6T       0.038700
     56 H67         -4.1720     0.2140     0.0140 hc         1 L6T       0.039200
     57 HBA         -4.3970    -0.2480    -1.6590 hc         1 L6T       0.039200
     58 H68         -6.2000    -1.8560    -0.9570 hc         1 L6T       0.037200
     59 HBB         -5.9520    -1.3880     0.7100 hc         1 L6T       0.037200
     60 HBC         -6.5790     0.9790     0.1160 hc         1 L6T       0.038200
     61 H69         -6.9000     0.4650    -1.5260 hc         1 L6T       0.038200
     62 H7A         -8.6430    -1.1290    -0.6820 hc         1 L6T       0.037200
     63 HBD         -8.3060    -0.6230     0.9580 hc         1 L6T       0.037200
     64 HBE         -8.9970     1.7180     0.3710 hc         1 L6T       0.037200
     65 H7B         -9.3660     1.1940    -1.2570 hc         1 L6T       0.037200
     66 H7C        -11.0690    -0.4060    -0.3570 hc         1 L6T       0.036700
     67 HBF        -10.6880     0.1050     1.2720 hc         1 L6T       0.036700
     68 H7D        -11.4130     2.4380     0.7080 hc         1 L6T       0.037200
     69 HBG        -11.8100     1.9190    -0.9150 hc         1 L6T       0.037200
     70 HBH        -13.4880     0.3100     0.0090 hc         1 L6T       0.036200
     71 H7E        -13.0860     0.8200     1.6310 hc         1 L6T       0.036200
     72 H7G        -13.8550     3.1580     1.0890 hc         1 L6T       0.031367
     73 HBI        -14.2800     2.6330    -0.5360 hc         1 L6T       0.031367
     74 H7F        -15.1450     1.9830     0.8530 hc         1 L6T       0.031367
     75 H22          6.1050    -0.6990     2.4290 ho         1 L6T       0.418000
     76 H32          6.8990    -3.0700     0.1520 ho         1 L6T       0.427000
     77 H42          4.5280    -4.6280    -1.4030 ho         1 L6T       0.426000
     78 HAQ          5.8510     3.9430     3.4270 ho         1 L6T       0.403000
     79 HAS          5.0750     4.1480    -2.1080 ho         1 L6T       0.425000
     80 HAU          2.8700     2.1190    -3.3010 ho         1 L6T       0.427000
     81 HAW          1.1090     0.1100    -1.0060 ho         1 L6T       0.433000
@<TRIPOS>BOND
     1     1     2 1   
     2     1    25 1   
     3     1    29 1   
     4     1    36 1   
     5     2     3 1   
     6     2    26 1   
     7     2    37 1   
     8     3     4 1   
     9     3    27 1   
    10     3    38 1   
    11     4     5 1   
    12     4    28 1   
    13     4    39 1   
    14     5     6 1   
    15     5    29 1   
    16     5    40 1   
    17     6    30 1   
    18     6    41 1   
    19     6    42 1   
    20     7    12 1   
    21     7    25 1   
    22     7    31 1   
    23     7    43 1   
    24     8     9 1   
    25     8    10 1   
    26     8    31 1   
    27     8    44 1   
    28     9    32 1   
    29     9    45 1   
    30     9    46 1   
    31    10    11 1   
    32    10    33 1   
    33    10    47 1   
    34    11    12 1   
    35    11    34 1   
    36    11    48 1   
    37    12    35 1   
    38    12    49 1   
    39    13    14 1   
    40    13    30 1   
    41    13    50 1   
    42    13    51 1   
    43    14    15 1   
    44    14    52 1   
    45    14    53 1   
    46    15    16 1   
    47    15    54 1   
    48    15    55 1   
    49    16    17 1   
    50    16    56 1   
    51    16    57 1   
    52    17    18 1   
    53    17    58 1   
    54    17    59 1   
    55    18    19 1   
    56    18    60 1   
    57    18    61 1   
    58    19    20 1   
    59    19    62 1   
    60    19    63 1   
    61    20    21 1   
    62    20    64 1   
    63    20    65 1   
    64    21    22 1   
    65    21    66 1   
    66    21    67 1   
    67    22    23 1   
    68    22    68 1   
    69    22    69 1   
    70    23    24 1   
    71    23    70 1   
    72    23    71 1   
    73    24    72 1   
    74    24    73 1   
    75    24    74 1   
    76    26    75 1   
    77    27    76 1   
    78    28    77 1   
    79    32    78 1   
    80    33    79 1   
    81    34    80 1   
    82    35    81 1   
@<TRIPOS>SUBSTRUCTURE
     1 L6T         1 TEMP              0 ****  ****    0 ROOT
