@<TRIPOS>MOLECULE
L6U
   72    74     1     0     0
SMALL
bcc


@<TRIPOS>ATOM
      1 C01         15.5590     7.2570   -11.7400 c3         1 L6U       0.095300
      2 C03         15.7960     5.9980    -9.6650 c          1 L6U       0.651100
      3 C05         16.3480     6.0390    -8.2370 c3         1 L6U       0.032700
      4 C06         17.8390     5.7020    -8.2370 c3         1 L6U      -0.082400
      5 C07         18.4800     5.7590    -6.8450 c3         1 L6U      -0.029100
      6 C08         18.2590     7.0770    -6.1550 ca         1 L6U      -0.089300
      7 C09         18.9170     8.2260    -6.5930 ca         1 L6U      -0.125000
      8 C10         18.6890     9.4520    -5.9860 ca         1 L6U      -0.126000
      9 C11         17.7940     9.5500    -4.9260 ca         1 L6U      -0.127000
     10 C12         17.1330     8.4140    -4.4820 ca         1 L6U      -0.126000
     11 C13         17.3650     7.1880    -5.0930 ca         1 L6U      -0.125000
     12 C17         13.8290     4.3770    -5.9550 c3         1 L6U       0.119000
     13 C21         10.0940     3.9350    -5.5360 c3         1 L6U       0.086800
     14 C23          9.5970     5.3080    -3.5880 c3         1 L6U       0.216100
     15 C24          9.3760     6.5680    -4.3910 ca         1 L6U      -0.197300
     16 C25         10.4370     7.3540    -4.7990 ca         1 L6U      -0.053000
     17 C26         10.2800     8.4950    -5.5830 ca         1 L6U      -0.249000
     18 C27          9.0000     8.8570    -5.9770 ca         1 L6U       0.179100
     19 C29          9.7770    10.7530    -7.1690 c3         1 L6U       0.124700
     20 C30          7.9010     8.0860    -5.5820 ca         1 L6U      -0.258000
     21 C31          8.0880     6.9550    -4.8020 ca         1 L6U       0.176100
     22 C33          5.7570     6.4840    -4.7610 c3         1 L6U       0.124700
     23 C34         14.4460     4.6350    -4.6110 cc         1 L6U      -0.084400
     24 C35         15.4330     3.9250    -3.9970 cd         1 L6U      -0.136000
     25 C36         15.8340     4.4960    -2.7570 cd         1 L6U      -0.149000
     26 C37         15.1440     5.6290    -2.4580 cc         1 L6U      -0.115100
     27 N02         15.9630     7.1310   -10.3600 ns         1 L6U      -0.571900
     28 N14         15.6270     5.1270    -7.3880 ns         1 L6U      -0.537900
     29 N18         12.3980     4.5050    -5.9710 ns         1 L6U      -0.581900
     30 N22          9.3670     4.0560    -4.2960 n7         1 L6U      -0.786200
     31 O04         15.2790     4.9970   -10.1330 o          1 L6U      -0.594100
     32 O20         11.9820     2.8170    -4.5360 o          1 L6U      -0.572100
     33 O28          8.7130     9.9280    -6.7410 os         1 L6U      -0.319900
     34 O32          7.0810     6.1630    -4.3890 os         1 L6U      -0.324900
     35 S38         14.0060     6.0170    -3.6820 ss         1 L6U      -0.068800
     36 H1          15.7970     8.2610   -12.0790 h1         1 L6U       0.041033
     37 H2          16.0830     6.5460   -12.3800 h1         1 L6U       0.041033
     38 H3          14.4870     7.1000   -11.8610 h1         1 L6U       0.041033
     39 H4          16.2210     7.0510    -7.8410 h1         1 L6U       0.085700
     40 H5          17.9930     4.7070    -8.6650 hc         1 L6U       0.056700
     41 H6          18.3460     6.4080    -8.8980 hc         1 L6U       0.056700
     42 H7          18.0970     4.9500    -6.2200 hc         1 L6U       0.051700
     43 H8          19.5490     5.5730    -6.9640 hc         1 L6U       0.051700
     44 H9          19.6170     8.1570    -7.4190 ha         1 L6U       0.131500
     45 H10         19.2120    10.3320    -6.3370 ha         1 L6U       0.131500
     46 H11         17.6170    10.5070    -4.4510 ha         1 L6U       0.131000
     47 H12         16.4350     8.4780    -3.6560 ha         1 L6U       0.131500
     48 H13         16.8470     6.3050    -4.7370 ha         1 L6U       0.131500
     49 H14         14.1260     3.3680    -6.2630 h1         1 L6U       0.079700
     50 H15          9.9630     4.7880    -6.2150 h1         1 L6U       0.048700
     51 H16          9.7210     3.0560    -6.0690 h1         1 L6U       0.048700
     52 H17          8.9640     5.3000    -2.6980 h1         1 L6U       0.062700
     53 H18         10.6280     5.3120    -3.2210 h1         1 L6U       0.062700
     54 H19         11.4380     7.0730    -4.4940 ha         1 L6U       0.136000
     55 H20         11.1530     9.0640    -5.8690 ha         1 L6U       0.144000
     56 H21          9.3330    11.5480    -7.7620 h1         1 L6U       0.042033
     57 H22         10.3130    11.1990    -6.3270 h1         1 L6U       0.042033
     58 H23         10.4920    10.2090    -7.7920 h1         1 L6U       0.042033
     59 H24          6.9150     8.3970    -5.9030 ha         1 L6U       0.149000
     60 H25          5.1190     5.7180    -4.3280 h1         1 L6U       0.042700
     61 H26          5.4480     7.4580    -4.3730 h1         1 L6U       0.042700
     62 H27          5.6260     6.4790    -5.8460 h1         1 L6U       0.042700
     63 H28         15.8550     3.0210    -4.4150 ha         1 L6U       0.151000
     64 H29         16.5960     4.0750    -2.1170 ha         1 L6U       0.154000
     65 H30         15.2320     6.2540    -1.5830 h4         1 L6U       0.168000
     66 H31         16.3670     7.9330    -9.9060 hn         1 L6U       0.317500
     67 H32         16.0380     4.2310    -7.1780 hn         1 L6U       0.329500
     68 H33         12.0120     5.2520    -6.5300 hn         1 L6U       0.342500
     69 H34          8.3790     3.9380    -4.4760 hn         1 L6U       0.371800
     70 C15         14.3980     5.4000    -6.9470 c          1 L6U       0.663100
     71 C19         11.5760     3.6920    -5.2800 c          1 L6U       0.667100
     72 O16         13.7760     6.4060    -7.2460 o          1 L6U      -0.608100
@<TRIPOS>BOND
     1     1    27 1   
     2     1    36 1   
     3     1    37 1   
     4     1    38 1   
     5     2     3 1   
     6     2    27 1   
     7     2    31 2   
     8     3     4 1   
     9     3    28 1   
    10     3    39 1   
    11     4     5 1   
    12     4    40 1   
    13     4    41 1   
    14     5     6 1   
    15     5    42 1   
    16     5    43 1   
    17     6     7 ar  
    18     6    11 ar  
    19     7     8 ar  
    20     7    44 1   
    21     8     9 ar  
    22     8    45 1   
    23     9    10 ar  
    24     9    46 1   
    25    10    11 ar  
    26    10    47 1   
    27    11    48 1   
    28    12    23 1   
    29    12    29 1   
    30    12    49 1   
    31    12    70 1   
    32    13    30 1   
    33    13    50 1   
    34    13    51 1   
    35    13    71 1   
    36    14    15 1   
    37    14    30 1   
    38    14    52 1   
    39    14    53 1   
    40    15    16 ar  
    41    15    21 ar  
    42    16    17 ar  
    43    16    54 1   
    44    17    18 ar  
    45    17    55 1   
    46    18    20 ar  
    47    18    33 1   
    48    19    33 1   
    49    19    56 1   
    50    19    57 1   
    51    19    58 1   
    52    20    21 ar  
    53    20    59 1   
    54    21    34 1   
    55    22    34 1   
    56    22    60 1   
    57    22    61 1   
    58    22    62 1   
    59    23    24 2   
    60    23    35 1   
    61    24    25 1   
    62    24    63 1   
    63    25    26 2   
    64    25    64 1   
    65    26    35 1   
    66    26    65 1   
    67    27    66 1   
    68    28    67 1   
    69    28    70 1   
    70    29    68 1   
    71    29    71 1   
    72    30    69 1   
    73    32    71 2   
    74    70    72 2   
@<TRIPOS>SUBSTRUCTURE
     1 L6U         1 TEMP              0 ****  ****    0 ROOT
