@<TRIPOS>MOLECULE
L6U
   72    74     1     0     0
SMALL
No Charge or Current Charge


@<TRIPOS>ATOM
      1 C01         15.9950     6.8580   -12.1080 c3         1 L6U       0.095300
      2 C03         15.8880     5.8760    -9.7960 c          1 L6U       0.584100
      3 C05         16.2550     6.1320    -8.3040 c3         1 L6U       0.032700
      4 C06         17.7900     6.0740    -8.0770 c3         1 L6U      -0.082400
      5 C07         18.2420     6.2780    -6.6080 c3         1 L6U      -0.029100
      6 C08         17.6520     7.5210    -5.9470 ca         1 L6U      -0.089300
      7 C09         17.7930     8.7930    -6.5390 ca         1 L6U      -0.107000
      8 C10         17.2310     9.9270    -5.9260 ca         1 L6U      -0.108000
      9 C11         16.5310     9.7990    -4.7150 ca         1 L6U      -0.109000
     10 C12         16.3970     8.5370    -4.1140 ca         1 L6U      -0.108000
     11 C13         16.9590     7.4040    -4.7260 ca         1 L6U      -0.107000
     12 C17         13.7100     4.2270    -6.0480 c3         1 L6U       0.119000
     13 C21          9.9040     3.8010    -5.3210 c3         1 L6U       0.086800
     14 C23         10.0920     5.5230    -3.4640 c3         1 L6U       0.216100
     15 C24          9.8570     6.7120    -4.3920 ca         1 L6U      -0.197300
     16 C25         10.9640     7.3850    -4.9470 ca         1 L6U      -0.035000
     17 C26         10.7750     8.4770    -5.8070 ca         1 L6U      -0.231000
     18 C27          9.4730     8.9160    -6.1140 ca         1 L6U       0.179100
     19 C29         10.2890    10.7200    -7.5870 c3         1 L6U       0.147900
     20 C30          8.3690     8.2630    -5.5510 ca         1 L6U      -0.240000
     21 C31          8.5510     7.1620    -4.6870 ca         1 L6U       0.176100
     22 C33          6.1140     6.8950    -4.3510 c3         1 L6U       0.147900
     23 C34         14.4480     4.1700    -4.7320 cc         1 L6U      -0.229300
     24 C35         15.3950     3.2570    -4.3390 cd         1 L6U      -0.118000
     25 C36         15.9170     3.5030    -3.0420 cd         1 L6U      -0.131000
     26 C37         15.3740     4.6050    -2.4330 cc         1 L6U      -0.242000
     27 N02         16.2400     6.8880   -10.6650 ns         1 L6U      -0.504900
     28 N14         15.5450     5.1860    -7.4150 ns         1 L6U      -0.470900
     29 N18         12.2570     4.3790    -5.8450 ns         1 L6U      -0.514900
     30 N22          9.4410     4.3040    -3.9830 n7         1 L6U      -0.841400
     31 O04         15.3300     4.8590   -10.1920 o          1 L6U      -0.594100
     32 O20         11.8060     2.2640    -5.1240 o          1 L6U      -0.572100
     33 O28          9.2280     9.9830    -6.9530 os         1 L6U      -0.343100
     34 O32          7.4780     6.5030    -4.1140 os         1 L6U      -0.348100
     35 S38         14.1810     5.3740    -3.4720 ss         1 L6U       0.221000
     36 H1          16.3710     7.7830   -12.5640 h1         1 L6U       0.041033
     37 H2          16.5130     5.9990   -12.5540 h1         1 L6U       0.041033
     38 H3          14.9170     6.7730   -12.2980 h1         1 L6U       0.041033
     39 H4          15.9110     7.1480    -8.0670 h1         1 L6U       0.085700
     40 H5          18.1680     5.1050    -8.4260 hc         1 L6U       0.056700
     41 H6          18.2740     6.8320    -8.7040 hc         1 L6U       0.056700
     42 H7          17.9810     5.3810    -6.0320 hc         1 L6U       0.051700
     43 H8          19.3370     6.3370    -6.5840 hc         1 L6U       0.051700
     44 H9          18.3370     8.9070    -7.4740 ha         1 L6U       0.113500
     45 H10         17.3400    10.9050    -6.3900 ha         1 L6U       0.113500
     46 H11         16.0960    10.6770    -4.2410 ha         1 L6U       0.113000
     47 H12         15.8600     8.4360    -3.1730 ha         1 L6U       0.113500
     48 H13         16.8560     6.4320    -4.2510 ha         1 L6U       0.113500
     49 H14         13.8770     3.2790    -6.5770 h1         1 L6U       0.079700
     50 H15          9.7250     4.5580    -6.0970 h1         1 L6U       0.048700
     51 H16          9.3180     2.9180    -5.6070 h1         1 L6U       0.048700
     52 H17          9.6870     5.7720    -2.4730 h1         1 L6U       0.062700
     53 H18         11.1700     5.3580    -3.3300 h1         1 L6U       0.062700
     54 H19         11.9760     7.0660    -4.7120 ha         1 L6U       0.118000
     55 H20         11.6500     8.9670    -6.2230 ha         1 L6U       0.126000
     56 H21          9.8750    11.5210    -8.2110 h1         1 L6U       0.042033
     57 H22         10.9470    11.1790    -6.8370 h1         1 L6U       0.042033
     58 H23         10.8900    10.0640    -8.2290 h1         1 L6U       0.042033
     59 H24          7.3780     8.6270    -5.8000 ha         1 L6U       0.131000
     60 H25          5.4290     6.2400    -3.7980 h1         1 L6U       0.042700
     61 H26          5.9410     7.9260    -4.0170 h1         1 L6U       0.042700
     62 H27          5.8660     6.8220    -5.4170 h1         1 L6U       0.042700
     63 H28         15.7170     2.4250    -4.9590 ha         1 L6U       0.133000
     64 H29         16.6750     2.8780    -2.5760 ha         1 L6U       0.136000
     65 H30         15.5820     5.0220    -1.4560 h4         1 L6U       0.150000
     66 H31         16.6950     7.7020   -10.2670 hn         1 L6U       0.317500
     67 H32         16.0360     4.3660    -7.0790 hn         1 L6U       0.329500
     68 H33         11.8350     5.2670    -6.0920 hn         1 L6U       0.342500
     69 H34          8.4420     4.5400    -4.0650 hn         1 L6U       0.427000
     70 C15         14.2400     5.3440    -6.9980 c          1 L6U       0.596100
     71 C19         11.4070     3.3870    -5.4070 c          1 L6U       0.600100
     72 O16         13.5640     6.3080    -7.3450 o          1 L6U      -0.608100
@<TRIPOS>BOND
     1     1    27 1   
     2     1    36 1   
     3     1    37 1   
     4     1    38 1   
     5     2     3 1   
     6     2    27 1   
     7     2    31 2   
     8     3     4 1   
     9     3    28 1   
    10     3    39 1   
    11     4     5 1   
    12     4    40 1   
    13     4    41 1   
    14     5     6 1   
    15     5    42 1   
    16     5    43 1   
    17     6     7 ar  
    18     6    11 ar  
    19     7     8 ar  
    20     7    44 1   
    21     8     9 ar  
    22     8    45 1   
    23     9    10 ar  
    24     9    46 1   
    25    10    11 ar  
    26    10    47 1   
    27    11    48 1   
    28    12    23 1   
    29    12    29 1   
    30    12    49 1   
    31    12    70 1   
    32    13    30 1   
    33    13    50 1   
    34    13    51 1   
    35    13    71 1   
    36    14    15 1   
    37    14    30 1   
    38    14    52 1   
    39    14    53 1   
    40    15    16 ar  
    41    15    21 ar  
    42    16    17 ar  
    43    16    54 1   
    44    17    18 ar  
    45    17    55 1   
    46    18    20 ar  
    47    18    33 1   
    48    19    33 1   
    49    19    56 1   
    50    19    57 1   
    51    19    58 1   
    52    20    21 ar  
    53    20    59 1   
    54    21    34 1   
    55    22    34 1   
    56    22    60 1   
    57    22    61 1   
    58    22    62 1   
    59    23    24 2   
    60    23    35 1   
    61    24    25 1   
    62    24    63 1   
    63    25    26 2   
    64    25    64 1   
    65    26    35 1   
    66    26    65 1   
    67    27    66 1   
    68    28    67 1   
    69    28    70 1   
    70    29    68 1   
    71    29    71 1   
    72    30    69 1   
    73    32    71 2   
    74    70    72 2   
@<TRIPOS>SUBSTRUCTURE
     1 L6U         1 TEMP              0 ****  ****    0 ROOT
