@<TRIPOS>MOLECULE
L6V
   46    48     1     0     0
SMALL
abcg2


@<TRIPOS>ATOM
      1 CAA         -3.8760    -0.0210     1.1530 ca         1 L6V      -0.089500
      2 CAB         -3.3710     0.3230    -0.0970 ca         1 L6V      -0.067300
      3 CAC         -4.1790     0.2040    -1.2250 ca         1 L6V      -0.089500
      4 CAD         -5.4840    -0.2390    -1.1080 ca         1 L6V      -0.071000
      5 CAE         -5.9830    -0.5720     0.1510 ca         1 L6V      -0.007000
      6 CAF         -5.1800    -0.4630     1.2850 ca         1 L6V      -0.071000
      7 CAG         -7.3320    -1.0220     0.2810 cg         1 L6V       0.321000
      8 CAI         -1.9560     0.7930    -0.2270 c3         1 L6V      -0.264100
      9 CAL          1.3200     0.5780     0.3540 c          1 L6V       0.644100
     10 CAO          2.7660     0.9780     0.0460 c6         1 L6V      -0.043700
     11 CAP          3.5450    -0.3280     0.0800 cc         1 L6V      -0.124300
     12 CAR          4.8340    -2.0890    -0.7200 cd         1 L6V      -0.250000
     13 CAS          4.2200    -0.9150    -1.0320 cc         1 L6V      -0.128000
     14 CAT          3.6710    -1.0950     1.2040 cd         1 L6V      -0.233000
     15 CAU          2.7130     3.9580    -0.2610 c6         1 L6V      -0.076400
     16 CAV          2.6140     3.3060     1.1120 c6         1 L6V      -0.077400
     17 CAW          3.2810     1.9330     1.1390 c6         1 L6V      -0.063900
     18 CAX          2.8990     1.6850    -1.3130 c6         1 L6V      -0.063900
     19 CAY          2.1790     3.0290    -1.3440 c6         1 L6V      -0.077400
     20 NAH         -8.4210    -1.3830     0.3860 n1         1 L6V      -0.447000
     21 NAK          0.6240     0.0390    -0.7050 ns         1 L6V      -0.588300
     22 OAM         -0.9580    -1.5400     0.5430 o          1 L6V      -0.517500
     23 OAN         -1.2080    -1.1120    -1.9120 o          1 L6V      -0.517500
     24 OAZ          0.8100     0.6730     1.4460 o          1 L6V      -0.561100
     25 SAJ         -0.9100    -0.6260    -0.5770 s6         1 L6V       1.203800
     26 SAQ          4.5980    -2.5020     0.9230 ss         1 L6V       0.243000
     27 H1          -3.2540     0.0710     2.0340 ha         1 L6V       0.130500
     28 H2          -3.7940     0.4710    -2.2000 ha         1 L6V       0.130500
     29 H3          -6.1110    -0.3260    -1.9830 ha         1 L6V       0.130500
     30 H4          -5.5740    -0.7200     2.2580 ha         1 L6V       0.130500
     31 H5          -1.8200     1.4900    -1.0540 h1         1 L6V       0.111200
     32 H6          -1.5900     1.2470     0.6930 h1         1 L6V       0.111200
     33 H7           5.4140    -2.7260    -1.3700 h4         1 L6V       0.154000
     34 H8           4.2550    -0.4850    -2.0220 ha         1 L6V       0.132000
     35 H9           3.2640    -0.9050     2.1860 h4         1 L6V       0.163000
     36 H10          2.1690     4.9040    -0.2710 hc         1 L6V       0.043700
     37 H11          3.7600     4.1930    -0.4800 hc         1 L6V       0.043700
     38 H12          3.0870     3.9410     1.8650 hc         1 L6V       0.044450
     39 H13          1.5640     3.2190     1.4030 hc         1 L6V       0.044450
     40 H14          3.1700     1.4810     2.1250 hc         1 L6V       0.052200
     41 H15          4.3560     2.0510     0.9730 hc         1 L6V       0.052200
     42 H16          3.9660     1.8510    -1.4880 hc         1 L6V       0.052200
     43 H17          2.5650     1.0600    -2.1450 hc         1 L6V       0.052200
     44 H18          1.1000     2.8850    -1.2150 hc         1 L6V       0.044450
     45 H19          2.3100     3.4770    -2.3310 hc         1 L6V       0.044450
     46 H20          1.0280    -0.0030    -1.6330 hn         1 L6V       0.351500
@<TRIPOS>BOND
     1     1     2 ar  
     2     1     6 ar  
     3     1    27 1   
     4     2     3 ar  
     5     2     8 1   
     6     3     4 ar  
     7     3    28 1   
     8     4     5 ar  
     9     4    29 1   
    10     5     6 ar  
    11     5     7 1   
    12     6    30 1   
    13     7    20 3   
    14     8    25 1   
    15     8    31 1   
    16     8    32 1   
    17     9    10 1   
    18     9    21 1   
    19     9    24 2   
    20    10    11 1   
    21    10    17 1   
    22    10    18 1   
    23    11    13 1   
    24    11    14 2   
    25    12    13 2   
    26    12    26 1   
    27    12    33 1   
    28    13    34 1   
    29    14    26 1   
    30    14    35 1   
    31    15    16 1   
    32    15    19 1   
    33    15    36 1   
    34    15    37 1   
    35    16    17 1   
    36    16    38 1   
    37    16    39 1   
    38    17    40 1   
    39    17    41 1   
    40    18    19 1   
    41    18    42 1   
    42    18    43 1   
    43    19    44 1   
    44    19    45 1   
    45    21    25 1   
    46    21    46 1   
    47    22    25 2   
    48    23    25 2   
@<TRIPOS>SUBSTRUCTURE
     1 L6V         1 TEMP              0 ****  ****    0 ROOT
