@<TRIPOS>MOLECULE
L6V
   46    48     1     0     0
SMALL
No Charge or Current Charge


@<TRIPOS>ATOM
      1 CAA         -3.9050    -0.8250     0.9620 ca         1 L6V      -0.089500
      2 CAB         -3.4470     0.2400     0.1640 ca         1 L6V      -0.067300
      3 CAC         -4.3620     0.9510    -0.6350 ca         1 L6V      -0.089500
      4 CAD         -5.7230     0.5980    -0.6410 ca         1 L6V      -0.071000
      5 CAE         -6.1800    -0.4700     0.1550 ca         1 L6V      -0.007000
      6 CAF         -5.2660    -1.1800     0.9570 ca         1 L6V      -0.071000
      7 CAG         -7.5710    -0.8320     0.1500 cg         1 L6V       0.321000
      8 CAI         -1.9720     0.6260     0.1720 c3         1 L6V      -0.264100
      9 CAL          1.4140     0.2050     0.1840 c          1 L6V       0.644100
     10 CAO          2.8490     0.8360     0.0760 c6         1 L6V      -0.043700
     11 CAP          3.8870    -0.2400     0.4120 cc         1 L6V      -0.124300
     12 CAR          4.9630    -2.2910     0.0460 cd         1 L6V      -0.250000
     13 CAS          3.9940    -1.4200    -0.3740 cc         1 L6V      -0.128000
     14 CAT          4.7890    -0.2210     1.4520 cd         1 L6V      -0.233000
     15 CAU          2.5600     3.8090    -0.6920 c6         1 L6V      -0.076400
     16 CAV          2.0840     3.2590     0.6680 c6         1 L6V      -0.077400
     17 CAW          2.9430     2.0390     1.0800 c6         1 L6V      -0.063900
     18 CAX          3.2210     1.4070    -1.3500 c6         1 L6V      -0.063900
     19 CAY          2.4900     2.7180    -1.7800 c6         1 L6V      -0.077400
     20 NAH         -8.7040    -1.1170     0.1480 n1         1 L6V      -0.447000
     21 NAK          0.5460     0.4270    -0.8410 ns         1 L6V      -0.588300
     22 OAM         -0.9240    -1.6510    -0.7310 o          1 L6V      -0.517500
     23 OAN         -1.4180     0.2030    -2.3950 o          1 L6V      -0.517500
     24 OAZ          1.1160    -0.5380     1.1080 o          1 L6V      -0.561100
     25 SAJ         -0.9740    -0.2240    -1.0650 s6         1 L6V       1.203800
     26 SAQ          5.8060    -1.6730     1.4740 ss         1 L6V       0.243000
     27 H1          -3.2080    -1.3810     1.5850 ha         1 L6V       0.130500
     28 H2          -4.0200     1.7780    -1.2550 ha         1 L6V       0.130500
     29 H3          -6.4190     1.1550    -1.2640 ha         1 L6V       0.130500
     30 H4          -5.6070    -2.0070     1.5780 ha         1 L6V       0.130500
     31 H5          -1.8490     1.6950    -0.0260 h1         1 L6V       0.111200
     32 H6          -1.5160     0.3890     1.1390 h1         1 L6V       0.111200
     33 H7           5.2380    -3.2490    -0.3780 h4         1 L6V       0.154000
     34 H8           3.3550    -1.6100    -1.2330 ha         1 L6V       0.132000
     35 H9           4.9350     0.5330     2.2140 h4         1 L6V       0.163000
     36 H10          1.9460     4.6710    -0.9850 hc         1 L6V       0.043700
     37 H11          3.5920     4.1770    -0.6020 hc         1 L6V       0.043700
     38 H12          2.1690     4.0440     1.4320 hc         1 L6V       0.044450
     39 H13          1.0210     2.9860     0.6200 hc         1 L6V       0.044450
     40 H14          2.6490     1.7100     2.0860 hc         1 L6V       0.052200
     41 H15          3.9870     2.3740     1.1630 hc         1 L6V       0.052200
     42 H16          4.3010     1.6140    -1.3650 hc         1 L6V       0.052200
     43 H17          3.0690     0.6390    -2.1210 hc         1 L6V       0.052200
     44 H18          1.4410     2.5310    -2.0380 hc         1 L6V       0.044450
     45 H19          2.9500     3.1000    -2.7020 hc         1 L6V       0.044450
     46 H20          0.8310     0.9870    -1.6240 hn         1 L6V       0.351500
@<TRIPOS>BOND
     1     1     2 ar  
     2     1     6 ar  
     3     1    27 1   
     4     2     3 ar  
     5     2     8 1   
     6     3     4 ar  
     7     3    28 1   
     8     4     5 ar  
     9     4    29 1   
    10     5     6 ar  
    11     5     7 1   
    12     6    30 1   
    13     7    20 3   
    14     8    25 1   
    15     8    31 1   
    16     8    32 1   
    17     9    10 1   
    18     9    21 1   
    19     9    24 2   
    20    10    11 1   
    21    10    17 1   
    22    10    18 1   
    23    11    13 1   
    24    11    14 2   
    25    12    13 2   
    26    12    26 1   
    27    12    33 1   
    28    13    34 1   
    29    14    26 1   
    30    14    35 1   
    31    15    16 1   
    32    15    19 1   
    33    15    36 1   
    34    15    37 1   
    35    16    17 1   
    36    16    38 1   
    37    16    39 1   
    38    17    40 1   
    39    17    41 1   
    40    18    19 1   
    41    18    42 1   
    42    18    43 1   
    43    19    44 1   
    44    19    45 1   
    45    21    25 1   
    46    21    46 1   
    47    22    25 2   
    48    23    25 2   
@<TRIPOS>SUBSTRUCTURE
     1 L6V         1 TEMP              0 ****  ****    0 ROOT
