@<TRIPOS>MOLECULE
L6X
   19    19     1     0     0
SMALL
No Charge or Current Charge


@<TRIPOS>ATOM
      1 C01          4.2610     2.8410    17.5510 ca         1 L6X      -0.126600
      2 C02          5.1570     2.4480    18.5730 ca         1 L6X      -0.092000
      3 C03          5.0780     1.1670    19.1410 ca         1 L6X       0.080100
      4 C04          4.1040     0.2480    18.7050 ca         1 L6X       0.006100
      5 C05          3.2040     0.6280    17.6870 ca         1 L6X      -0.181000
      6 C06          3.2850     1.9120    17.1180 ca         1 L6X      -0.093000
      7 C08          3.1090    -2.0060    18.9190 c3         1 L6X       0.167900
      8 C10          4.3460     4.2300    16.9340 c          1 L6X       0.714600
      9 O07          4.0680    -1.0020    19.2990 os         1 L6X      -0.381100
     10 O09          5.9480     0.8000    20.1260 oh         1 L6X      -0.553100
     11 O11          3.5520     4.5300    16.0530 o          1 L6X      -0.720000
     12 O12          5.2070     4.9990    17.3400 o          1 L6X      -0.720000
     13 H1           5.9200     3.1360    18.9300 ha         1 L6X       0.144000
     14 H2           2.4390    -0.0530    17.3240 ha         1 L6X       0.090000
     15 H3           2.5810     2.1840    16.3330 ha         1 L6X       0.128000
     16 H4           3.2570    -2.9180    19.5120 h1         1 L6X       0.026033
     17 H5           2.0840    -1.6510    19.0900 h1         1 L6X       0.026033
     18 H6           3.2180    -2.2680    17.8580 h1         1 L6X       0.026033
     19 H7           5.7100    -0.1220    20.3700 ho         1 L6X       0.458000
@<TRIPOS>BOND
     1     1     2 ar  
     2     1     6 ar  
     3     1     8 1   
     4     2     3 ar  
     5     2    13 1   
     6     3     4 ar  
     7     3    10 1   
     8     4     5 ar  
     9     4     9 1   
    10     5     6 ar  
    11     5    14 1   
    12     6    15 1   
    13     7     9 1   
    14     7    16 1   
    15     7    17 1   
    16     7    18 1   
    17     8    11 1   
    18     8    12 1   
    19    10    19 1   
@<TRIPOS>SUBSTRUCTURE
     1 L6X         1 TEMP              0 ****  ****    0 ROOT
