@<TRIPOS>MOLECULE
L6X
   19    19     1     0     0
SMALL
abcg2


@<TRIPOS>ATOM
      1 C01          4.2440     2.8010    17.5580 ca         1 L6X      -0.126600
      2 C02          5.1240     2.4010    18.5660 ca         1 L6X      -0.092000
      3 C03          5.0500     1.1400    19.1270 ca         1 L6X       0.080100
      4 C04          4.0720     0.2360    18.6800 ca         1 L6X       0.006100
      5 C05          3.1920     0.6250    17.6820 ca         1 L6X      -0.181000
      6 C06          3.2820     1.8990    17.1270 ca         1 L6X      -0.093000
      7 C08          3.1320    -1.9350    18.9000 c3         1 L6X       0.167900
      8 C10          4.3480     4.1950    16.9510 c          1 L6X       0.714600
      9 O07          4.0850    -0.9700    19.2920 os         1 L6X      -0.381100
     10 O09          5.9260     0.7950    20.0980 oh         1 L6X      -0.553100
     11 O11          3.5280     4.4750    16.0540 o          1 L6X      -0.720000
     12 O12          5.2440     4.9360    17.4020 o          1 L6X      -0.720000
     13 H1           5.8830     3.0870    18.9200 ha         1 L6X       0.144000
     14 H2           2.4310    -0.0540    17.3210 ha         1 L6X       0.090000
     15 H3           2.5890     2.1840    16.3480 ha         1 L6X       0.128000
     16 H4           3.3110    -2.8160    19.5110 h1         1 L6X       0.026033
     17 H5           2.1090    -1.5880    19.0720 h1         1 L6X       0.026033
     18 H6           3.2380    -2.2080    17.8470 h1         1 L6X       0.026033
     19 H7           5.7400    -0.1000    20.4060 ho         1 L6X       0.458000
@<TRIPOS>BOND
     1     1     2 ar  
     2     1     6 ar  
     3     1     8 1   
     4     2     3 ar  
     5     2    13 1   
     6     3     4 ar  
     7     3    10 1   
     8     4     5 ar  
     9     4     9 1   
    10     5     6 ar  
    11     5    14 1   
    12     6    15 1   
    13     7     9 1   
    14     7    16 1   
    15     7    17 1   
    16     7    18 1   
    17     8    11 1   
    18     8    12 1   
    19    10    19 1   
@<TRIPOS>SUBSTRUCTURE
     1 L6X         1 TEMP              0 ****  ****    0 ROOT
