@<TRIPOS>MOLECULE
L6Y
   35    38     1     0     0
SMALL
abcg2


@<TRIPOS>ATOM
      1 OAO          3.7070    -2.3560     0.5150 o          1 L6Y      -0.476000
      2 CAN          3.1550    -1.3040     0.2910 c          1 L6Y       0.607600
      3 NAM          3.8540    -0.1140     0.3270 n          1 L6Y      -0.251900
      4 OAX          5.1760    -0.2400     0.6190 oh         1 L6Y      -0.416100
      5 CAK          3.3800     1.1600     0.1010 c          1 L6Y       0.581600
      6 OAL          4.1500     2.0970     0.1930 o          1 L6Y      -0.535000
      7 CAJ          1.9560     1.2660    -0.2240 ca         1 L6Y      -0.160600
      8 CAI          1.4070     2.5010    -0.4710 ca         1 L6Y      -0.011000
      9 CAH          0.0480     2.6140    -0.7930 ca         1 L6Y      -0.128000
     10 CAG         -0.7450     1.4980    -0.8550 ca         1 L6Y      -0.053000
     11 CAF         -0.2150     0.2130    -0.5960 ca         1 L6Y      -0.036000
     12 CAE          1.1610     0.1010    -0.2850 ca         1 L6Y       0.018000
     13 CAD          1.7270    -1.1680    -0.0430 ca         1 L6Y      -0.153600
     14 CAC          0.9480    -2.2960    -0.1240 ca         1 L6Y      -0.021000
     15 CAB         -0.4120    -2.1970    -0.4430 ca         1 L6Y      -0.092000
     16 CAA         -0.9950    -0.9720    -0.6560 ca         1 L6Y      -0.106600
     17 CAP         -2.4550    -0.9370    -0.9990 c          1 L6Y       0.587300
     18 OAQ         -2.8340    -1.4720    -2.0180 o          1 L6Y      -0.497100
     19 CAR         -3.3880    -0.2790    -0.0580 ca         1 L6Y      -0.183600
     20 CAS         -4.6890     0.0090    -0.4780 ca         1 L6Y      -0.059500
     21 CAT         -5.5820     0.6110     0.3910 ca         1 L6Y      -0.124000
     22 CAU         -5.1910     0.9160     1.6900 ca         1 L6Y      -0.077000
     23 CAV         -3.9040     0.6210     2.1190 ca         1 L6Y      -0.124000
     24 CAW         -3.0020     0.0310     1.2460 ca         1 L6Y      -0.059500
     25 H1           5.4790     0.6760     0.7500 ho         1 L6Y       0.472000
     26 H2           2.0230     3.3890    -0.4210 ha         1 L6Y       0.143000
     27 H3          -0.3740     3.5880    -0.9960 ha         1 L6Y       0.129000
     28 H4          -1.7900     1.6130    -1.1120 ha         1 L6Y       0.129000
     29 H5           1.3800    -3.2710     0.0580 ha         1 L6Y       0.147000
     30 H6          -1.0070    -3.0990    -0.5000 ha         1 L6Y       0.136000
     31 H7          -4.9950    -0.2300    -1.4880 ha         1 L6Y       0.128000
     32 H8          -6.5850     0.8430     0.0590 ha         1 L6Y       0.121000
     33 H9          -5.8920     1.3840     2.3690 ha         1 L6Y       0.118000
     34 H10         -3.6020     0.8520     3.1310 ha         1 L6Y       0.121000
     35 H11         -2.0030    -0.1970     1.5960 ha         1 L6Y       0.128000
@<TRIPOS>BOND
     1     1     2 2   
     2     2     3 1   
     3     2    13 1   
     4     3     4 1   
     5     3     5 1   
     6     4    25 1   
     7     5     6 2   
     8     5     7 1   
     9     7     8 ar  
    10     7    12 ar  
    11     8     9 ar  
    12     8    26 1   
    13     9    10 ar  
    14     9    27 1   
    15    10    11 ar  
    16    10    28 1   
    17    11    12 ar  
    18    11    16 ar  
    19    12    13 ar  
    20    13    14 ar  
    21    14    15 ar  
    22    14    29 1   
    23    15    16 ar  
    24    15    30 1   
    25    16    17 1   
    26    17    18 2   
    27    17    19 1   
    28    19    20 ar  
    29    19    24 ar  
    30    20    21 ar  
    31    20    31 1   
    32    21    22 ar  
    33    21    32 1   
    34    22    23 ar  
    35    22    33 1   
    36    23    24 ar  
    37    23    34 1   
    38    24    35 1   
@<TRIPOS>SUBSTRUCTURE
     1 L6Y         1 TEMP              0 ****  ****    0 ROOT
