@<TRIPOS>MOLECULE
L6Y
   35    38     1     0     0
SMALL
No Charge or Current Charge


@<TRIPOS>ATOM
      1 OAO          3.7860    -2.3100     0.4470 o          1 L6Y      -0.476000
      2 CAN          3.2400    -1.2340     0.2300 c          1 L6Y       0.607600
      3 NAM          3.9550    -0.0240     0.2870 n          1 L6Y      -0.251900
      4 OAX          5.3880    -0.0900     0.5920 oh         1 L6Y      -0.416100
      5 CAK          3.3930     1.2440     0.0590 c          1 L6Y       0.581600
      6 OAL          4.0670     2.2660     0.1340 o          1 L6Y      -0.535000
      7 CAJ          1.9250     1.2880    -0.2740 ca         1 L6Y      -0.160600
      8 CAI          1.3100     2.5320    -0.5280 ca         1 L6Y      -0.011000
      9 CAH         -0.0510     2.5950    -0.8520 ca         1 L6Y      -0.128000
     10 CAG         -0.8160     1.4230    -0.9180 ca         1 L6Y      -0.053000
     11 CAF         -0.2280     0.1660    -0.6490 ca         1 L6Y      -0.036000
     12 CAE          1.1580     0.1030    -0.3400 ca         1 L6Y       0.018000
     13 CAD          1.7750    -1.1440    -0.1010 ca         1 L6Y      -0.153600
     14 CAC          1.0080    -2.3240    -0.1840 ca         1 L6Y      -0.021000
     15 CAB         -0.3590    -2.2640    -0.4840 ca         1 L6Y      -0.092000
     16 CAA         -0.9940    -1.0280    -0.7020 ca         1 L6Y      -0.106600
     17 CAP         -2.4750    -1.0360    -0.9880 c          1 L6Y       0.587300
     18 OAQ         -2.9110    -1.6400    -1.9620 o          1 L6Y      -0.497100
     19 CAR         -3.4060    -0.3070    -0.0400 ca         1 L6Y      -0.183600
     20 CAS         -4.7410    -0.0450    -0.4220 ca         1 L6Y      -0.059500
     21 CAT         -5.6130     0.6310     0.4480 ca         1 L6Y      -0.124000
     22 CAU         -5.1650     1.0500     1.7110 ca         1 L6Y      -0.077000
     23 CAV         -3.8440     0.7880     2.1050 ca         1 L6Y      -0.124000
     24 CAW         -2.9670     0.1120     1.2380 ca         1 L6Y      -0.059500
     25 H1           5.4510    -0.0100     1.5720 ho         1 L6Y       0.472000
     26 H2           1.8860     3.4550    -0.4830 ha         1 L6Y       0.143000
     27 H3          -0.5140     3.5580    -1.0570 ha         1 L6Y       0.129000
     28 H4          -1.8650     1.5130    -1.1860 ha         1 L6Y       0.129000
     29 H5           1.4670    -3.2960    -0.0110 ha         1 L6Y       0.147000
     30 H6          -0.9340    -3.1870    -0.5340 ha         1 L6Y       0.136000
     31 H7          -5.1070    -0.3600    -1.3980 ha         1 L6Y       0.128000
     32 H8          -6.6380     0.8300     0.1420 ha         1 L6Y       0.121000
     33 H9          -5.8420     1.5730     2.3840 ha         1 L6Y       0.118000
     34 H10         -3.4970     1.1080     3.0850 ha         1 L6Y       0.121000
     35 H11         -1.9510    -0.0860     1.5730 ha         1 L6Y       0.128000
@<TRIPOS>BOND
     1     1     2 2   
     2     2     3 1   
     3     2    13 1   
     4     3     4 1   
     5     3     5 1   
     6     4    25 1   
     7     5     6 2   
     8     5     7 1   
     9     7     8 ar  
    10     7    12 ar  
    11     8     9 ar  
    12     8    26 1   
    13     9    10 ar  
    14     9    27 1   
    15    10    11 ar  
    16    10    28 1   
    17    11    12 ar  
    18    11    16 ar  
    19    12    13 ar  
    20    13    14 ar  
    21    14    15 ar  
    22    14    29 1   
    23    15    16 ar  
    24    15    30 1   
    25    16    17 1   
    26    17    18 2   
    27    17    19 1   
    28    19    20 ar  
    29    19    24 ar  
    30    20    21 ar  
    31    20    31 1   
    32    21    22 ar  
    33    21    32 1   
    34    22    23 ar  
    35    22    33 1   
    36    23    24 ar  
    37    23    34 1   
    38    24    35 1   
@<TRIPOS>SUBSTRUCTURE
     1 L6Y         1 TEMP              0 ****  ****    0 ROOT
