@<TRIPOS>MOLECULE
L71
   33    34     1     0     0
SMALL
No Charge or Current Charge


@<TRIPOS>ATOM
      1 C            4.6790     1.6180    -0.1300 c3         1 L71      -0.111100
      2 N            2.7030     0.0850     0.0950 n          1 L71      -0.388400
      3 C1           3.9820     0.5220     0.6940 c3         1 L71       0.105000
      4 N1          -4.9840     1.4990    -0.8450 n8         1 L71      -1.002200
      5 C2           2.6510    -0.9880    -0.7840 c          1 L71       0.566000
      6 C3           1.1540    -1.2760    -0.9430 c5         1 L71      -0.166400
      7 C4           0.4800     0.0820    -0.5570 c5         1 L71      -0.100400
      8 C5           1.5040     0.7120     0.4130 c          1 L71       0.568000
      9 C6          -0.8920    -0.2280     0.0470 ca         1 L71      -0.079300
     10 C7          -1.0170    -0.7970     1.3330 ca         1 L71      -0.099000
     11 C8          -2.2850    -1.0740     1.8690 ca         1 L71      -0.108000
     12 C9          -3.4430    -0.7870     1.1280 ca         1 L71      -0.104000
     13 C10         -3.3370    -0.2200    -0.1560 ca         1 L71      -0.083300
     14 C11         -4.5880     0.0840    -0.9700 c3         1 L71       0.197100
     15 C12         -2.0610     0.0550    -0.6880 ca         1 L71      -0.070000
     16 H            5.6220     1.9110     0.3460 hc         1 L71       0.045033
     17 HA           4.9010     1.2590    -1.1420 hc         1 L71       0.045033
     18 HB           4.0410     2.5070    -0.2080 hc         1 L71       0.045033
     19 H1           4.6530    -0.3430     0.7830 h1         1 L71       0.064200
     20 H1A          3.8010     0.8940     1.7120 h1         1 L71       0.064200
     21 HN1         -5.8790     1.6380    -1.3290 hn         1 L71       0.399500
     22 HN1A        -5.2070     1.6900     0.1390 hn         1 L71       0.399500
     23 H3           0.9210    -1.6650    -1.9390 hc         1 L71       0.089700
     24 H3A          0.9090    -2.0460    -0.2040 hc         1 L71       0.089700
     25 H4           0.4330     0.7340    -1.4370 hc         1 L71       0.090700
     26 H7          -0.1310    -1.0270     1.9210 ha         1 L71       0.113000
     27 H8          -2.3710    -1.5130     2.8610 ha         1 L71       0.115000
     28 H9          -4.4210    -1.0060     1.5510 ha         1 L71       0.111000
     29 H11         -5.4190    -0.5480    -0.6250 h1         1 L71       0.035700
     30 H11A        -4.4060    -0.1420    -2.0300 h1         1 L71       0.035700
     31 H12         -1.9810     0.4940    -1.6800 ha         1 L71       0.133000
     32 O            3.6000    -1.4490    -1.4010 o          1 L71      -0.505000
     33 O1           1.3390     1.5480     1.2900 o          1 L71      -0.494000
@<TRIPOS>BOND
     1     1     3 1   
     2     1    16 1   
     3     1    17 1   
     4     1    18 1   
     5     2     3 1   
     6     2     5 1   
     7     2     8 1   
     8     3    19 1   
     9     3    20 1   
    10     4    14 1   
    11     4    21 1   
    12     4    22 1   
    13     5     6 1   
    14     5    32 2   
    15     6     7 1   
    16     6    23 1   
    17     6    24 1   
    18     7     8 1   
    19     7     9 1   
    20     7    25 1   
    21     8    33 2   
    22     9    10 ar  
    23     9    15 ar  
    24    10    11 ar  
    25    10    26 1   
    26    11    12 ar  
    27    11    27 1   
    28    12    13 ar  
    29    12    28 1   
    30    13    14 1   
    31    13    15 ar  
    32    14    29 1   
    33    14    30 1   
    34    15    31 1   
@<TRIPOS>SUBSTRUCTURE
     1 L71         1 TEMP              0 ****  ****    0 ROOT
