@<TRIPOS>MOLECULE
L71
   33    34     1     0     0
SMALL
bcc


@<TRIPOS>ATOM
      1 C            4.5520     1.6270     0.0170 c3         1 L71      -0.111100
      2 N            2.5650     0.1690     0.1520 n          1 L71      -0.522400
      3 C1           3.7330     0.6640     0.8600 c3         1 L71       0.105000
      4 N1          -4.5400     1.4640    -1.2390 n8         1 L71      -0.891800
      5 C2           2.6030    -0.9220    -0.6900 c          1 L71       0.708500
      6 C3           1.2200    -1.1470    -1.2400 c5         1 L71      -0.166400
      7 C4           0.3860     0.0260    -0.7220 c5         1 L71      -0.100400
      8 C5           1.3280     0.7660     0.2110 c          1 L71       0.710500
      9 C6          -0.9040    -0.3450    -0.0390 ca         1 L71      -0.079300
     10 C7          -0.8940    -1.1540     1.0950 ca         1 L71      -0.117000
     11 C8          -2.0870    -1.4930     1.7130 ca         1 L71      -0.126000
     12 C9          -3.2940    -1.0340     1.2040 ca         1 L71      -0.122000
     13 C10         -3.3240    -0.2350     0.0660 ca         1 L71      -0.083300
     14 C11         -4.6460     0.2160    -0.5060 c3         1 L71       0.197100
     15 C12         -2.1180     0.1070    -0.5410 ca         1 L71      -0.088000
     16 H            5.4330     1.9450     0.5740 hc         1 L71       0.045033
     17 HA           4.8910     1.1560    -0.9060 hc         1 L71       0.045033
     18 HB           3.9780     2.5170    -0.2410 hc         1 L71       0.045033
     19 H1           4.3320    -0.1960     1.1560 h1         1 L71       0.064200
     20 H1A          3.3880     1.1470     1.7720 h1         1 L71       0.064200
     21 HN1         -5.4170     1.6520    -1.7050 hn         1 L71       0.344300
     22 HN1A        -4.3970     2.2280    -0.5910 hn         1 L71       0.344300
     23 H3           1.2560    -1.1940    -2.3280 hc         1 L71       0.089700
     24 H3A          0.8540    -2.1150    -0.8890 hc         1 L71       0.089700
     25 H4           0.1650     0.7150    -1.5410 hc         1 L71       0.090700
     26 H7           0.0420    -1.5160     1.5070 ha         1 L71       0.131000
     27 H8          -2.0770    -2.1130     2.6010 ha         1 L71       0.133000
     28 H9          -4.2210    -1.2980     1.7000 ha         1 L71       0.129000
     29 H11         -5.3860     0.2380     0.3050 h1         1 L71       0.035700
     30 H11A        -4.9960    -0.5500    -1.2050 h1         1 L71       0.035700
     31 H12         -2.1310     0.7420    -1.4180 ha         1 L71       0.151000
     32 O            3.5950    -1.5730    -0.9100 o          1 L71      -0.580500
     33 O1           1.0620     1.7260     0.8900 o          1 L71      -0.569500
@<TRIPOS>BOND
     1     1     3 1   
     2     1    16 1   
     3     1    17 1   
     4     1    18 1   
     5     2     3 1   
     6     2     5 1   
     7     2     8 1   
     8     3    19 1   
     9     3    20 1   
    10     4    14 1   
    11     4    21 1   
    12     4    22 1   
    13     5     6 1   
    14     5    32 2   
    15     6     7 1   
    16     6    23 1   
    17     6    24 1   
    18     7     8 1   
    19     7     9 1   
    20     7    25 1   
    21     8    33 2   
    22     9    10 ar  
    23     9    15 ar  
    24    10    11 ar  
    25    10    26 1   
    26    11    12 ar  
    27    11    27 1   
    28    12    13 ar  
    29    12    28 1   
    30    13    14 1   
    31    13    15 ar  
    32    14    29 1   
    33    14    30 1   
    34    15    31 1   
@<TRIPOS>SUBSTRUCTURE
     1 L71         1 TEMP              0 ****  ****    0 ROOT
