@<TRIPOS>MOLECULE
L73
   82    83     1     0     0
SMALL
No Charge or Current Charge


@<TRIPOS>ATOM
      1 C10          6.4060   -13.3480     3.5380 c3         1 L73       0.040700
      2 C11          7.9270   -13.4870     3.2280 c3         1 L73      -0.043100
      3 C01         10.4120    -6.3250     0.3520 c3         1 L73      -0.088100
      4 C02          9.5320    -7.5850     0.4650 c3         1 L73      -0.074400
      5 C03          8.3630    -7.4230     1.4600 c3         1 L73      -0.080400
      6 C04          7.5080    -8.6980     1.5900 c3         1 L73       0.155800
      7 C06          5.4790    -9.6360     2.7390 c3         1 L73       0.085800
      8 C07          6.1360   -10.8220     3.5130 c          1 L73       0.558100
      9 C12          8.3490   -13.0390     1.8260 ca         1 L73      -0.088300
     10 C13          9.3550   -12.0700     1.6650 ca         1 L73      -0.102000
     11 C14          9.7710   -11.6760     0.3820 ca         1 L73      -0.108500
     12 C15          9.1920   -12.2350    -0.7810 ca         1 L73      -0.062300
     13 C16          8.1780   -13.2070    -0.6060 ca         1 L73      -0.108500
     14 C17          7.7690   -13.6040     0.6770 ca         1 L73      -0.102000
     15 C18          9.6980   -11.7960    -2.1820 c3         1 L73       0.000300
     16 C19          9.5780   -10.2540    -2.3200 c3         1 L73      -0.081767
     17 C20          8.8980   -12.4430    -3.3480 c3         1 L73      -0.081767
     18 C21         11.1860   -12.2100    -2.3310 c3         1 L73      -0.081767
     19 C22          5.5740   -14.5590     3.0240 c          1 L73       0.599100
     20 C25          5.2820   -17.0730     3.2230 c3         1 L73       0.035700
     21 C26          6.4060   -18.0460     2.7830 c3         1 L73      -0.043100
     22 C27          7.2810   -17.4980     1.6600 ca         1 L73      -0.047300
     23 C28          8.6300   -17.1740     1.9030 ca         1 L73      -0.145000
     24 C29          9.4420   -16.6870     0.8650 ca         1 L73      -0.072000
     25 C30          8.9090   -16.5240    -0.4240 ca         1 L73      -0.140000
     26 C31          7.5640   -16.8350    -0.6790 ca         1 L73       0.143100
     27 C33          5.7140   -16.8690    -2.3120 c3         1 L73       0.145900
     28 C34          6.7500   -17.3260     0.3660 ca         1 L73      -0.198000
     29 C35          4.4450   -17.6720     4.3970 c          1 L73       0.589100
     30 C38          2.9430   -18.9090     2.7710 c3         1 L73       0.095300
     31 N05          6.3820    -8.4590     2.5130 n7         1 L73      -0.848400
     32 N09          5.8500   -12.0770     3.0180 ns         1 L73      -0.491900
     33 N24          5.8670   -15.7700     3.6170 ns         1 L73      -0.478900
     34 O08          6.8530   -10.6600     4.4940 o          1 L73      -0.621100
     35 O23          4.7070   -14.4540     2.1640 o          1 L73      -0.609100
     36 O32          7.0900   -16.6370    -1.9600 os         1 L73      -0.341100
     37 O36          4.6270   -17.3590     5.5650 o          1 L73      -0.598100
     38 H1           6.2830   -13.3510     4.6300 h1         1 L73       0.083700
     39 H2           8.2530   -14.5200     3.3980 hc         1 L73       0.063200
     40 H3           8.4700   -12.8930     3.9740 hc         1 L73       0.063200
     41 H4          11.2220    -6.4890    -0.3680 hc         1 L73       0.032033
     42 H5           9.8200    -5.4670     0.0130 hc         1 L73       0.032033
     43 H6          10.8600    -6.0760     1.3220 hc         1 L73       0.032033
     44 H7           9.1280    -7.8240    -0.5260 hc         1 L73       0.036700
     45 H8          10.1580    -8.4310     0.7730 hc         1 L73       0.036700
     46 H9           8.7630    -7.1540     2.4460 hc         1 L73       0.046700
     47 H10          7.7260    -6.5920     1.1320 hc         1 L73       0.046700
     48 H11          7.1340    -8.9840     0.5970 h1         1 L73       0.030700
     49 H12          8.1420    -9.5160     1.9580 h1         1 L73       0.030700
     50 H13          4.5970    -9.3380     3.3220 h1         1 L73       0.070700
     51 H14          5.1080   -10.0200     1.7790 h1         1 L73       0.070700
     52 H15          9.8270   -11.6230     2.5370 ha         1 L73       0.113500
     53 H16         10.5620   -10.9360     0.3010 ha         1 L73       0.111000
     54 H17          7.6980   -13.6870    -1.4530 ha         1 L73       0.111000
     55 H18          7.0070   -14.3710     0.7660 ha         1 L73       0.113500
     56 H19         10.2350    -9.7340    -1.6160 hc         1 L73       0.034700
     57 H20          9.8590    -9.9270    -3.3290 hc         1 L73       0.034700
     58 H21          8.5480    -9.9280    -2.1320 hc         1 L73       0.034700
     59 H22          8.9950   -13.5350    -3.3380 hc         1 L73       0.034700
     60 H23          7.8340   -12.1850    -3.2870 hc         1 L73       0.034700
     61 H24          9.2690   -12.0910    -4.3190 hc         1 L73       0.034700
     62 H25         11.8160   -11.7230    -1.5780 hc         1 L73       0.034700
     63 H26         11.2990   -13.2950    -2.2140 hc         1 L73       0.034700
     64 H27         11.5740   -11.9320    -3.3190 hc         1 L73       0.034700
     65 H28          4.6050   -16.9160     2.3750 h1         1 L73       0.087700
     66 H29          5.9610   -18.9950     2.4630 hc         1 L73       0.064200
     67 H30          7.0220   -18.2890     3.6580 hc         1 L73       0.064200
     68 H31          9.0530   -17.2990     2.8960 ha         1 L73       0.114000
     69 H32         10.4820   -16.4350     1.0590 ha         1 L73       0.119000
     70 H33          9.5350   -16.1420    -1.2250 ha         1 L73       0.131000
     71 H34          5.5490   -16.6370    -3.3720 h1         1 L73       0.041700
     72 H35          5.4410   -17.9180    -2.1470 h1         1 L73       0.041700
     73 H36          5.0480   -16.2320    -1.7160 h1         1 L73       0.041700
     74 H37          5.7090   -17.5790     0.1910 ha         1 L73       0.113000
     75 H38          2.1140   -19.6220     2.8660 h1         1 L73       0.039367
     76 H39          2.5660   -17.9830     2.3170 h1         1 L73       0.039367
     77 H40          3.7170   -19.3470     2.1280 h1         1 L73       0.039367
     78 H41          6.7750    -8.1890     3.4250 hn         1 L73       0.429000
     79 H43          5.2400   -12.1270     2.2090 hn         1 L73       0.343500
     80 H44          6.5590   -15.7620     4.3570 hn         1 L73       0.327500
     81 H45          3.0150   -19.0200     4.9030 hn         1 L73       0.319500
     82 N37          3.4920   -18.6250     4.1010 ns         1 L73      -0.506900
@<TRIPOS>BOND
     1     1     2 1   
     2     1    19 1   
     3     1    32 1   
     4     1    38 1   
     5     2     9 1   
     6     2    39 1   
     7     2    40 1   
     8     3     4 1   
     9     3    41 1   
    10     3    42 1   
    11     3    43 1   
    12     4     5 1   
    13     4    44 1   
    14     4    45 1   
    15     5     6 1   
    16     5    46 1   
    17     5    47 1   
    18     6    31 1   
    19     6    48 1   
    20     6    49 1   
    21     7     8 1   
    22     7    31 1   
    23     7    50 1   
    24     7    51 1   
    25     8    32 1   
    26     8    34 2   
    27     9    10 ar  
    28     9    14 ar  
    29    10    11 ar  
    30    10    52 1   
    31    11    12 ar  
    32    11    53 1   
    33    12    13 ar  
    34    12    15 1   
    35    13    14 ar  
    36    13    54 1   
    37    14    55 1   
    38    15    16 1   
    39    15    17 1   
    40    15    18 1   
    41    16    56 1   
    42    16    57 1   
    43    16    58 1   
    44    17    59 1   
    45    17    60 1   
    46    17    61 1   
    47    18    62 1   
    48    18    63 1   
    49    18    64 1   
    50    19    33 1   
    51    19    35 2   
    52    20    21 1   
    53    20    29 1   
    54    20    33 1   
    55    20    65 1   
    56    21    22 1   
    57    21    66 1   
    58    21    67 1   
    59    22    23 ar  
    60    22    28 ar  
    61    23    24 ar  
    62    23    68 1   
    63    24    25 ar  
    64    24    69 1   
    65    25    26 ar  
    66    25    70 1   
    67    26    28 ar  
    68    26    36 1   
    69    27    36 1   
    70    27    71 1   
    71    27    72 1   
    72    27    73 1   
    73    28    74 1   
    74    29    37 2   
    75    29    82 1   
    76    30    75 1   
    77    30    76 1   
    78    30    77 1   
    79    30    82 1   
    80    31    78 1   
    81    32    79 1   
    82    33    80 1   
    83    81    82 1   
@<TRIPOS>SUBSTRUCTURE
     1 L73         1 TEMP              0 ****  ****    0 ROOT
