@<TRIPOS>MOLECULE
L73
   82    83     1     0     0
SMALL
abcg2


@<TRIPOS>ATOM
      1 C10          6.9760   -13.0400     3.4190 c3         1 L73       0.040700
      2 C11          8.3870   -13.2260     2.8180 c3         1 L73      -0.043100
      3 C01         10.6820    -5.3860     2.0970 c3         1 L73      -0.088100
      4 C02          9.8720    -6.6590     1.8960 c3         1 L73      -0.074400
      5 C03          8.7260    -6.7870     2.8910 c3         1 L73      -0.080400
      6 C04          7.9320    -8.0700     2.7070 c3         1 L73       0.155800
      7 C06          6.0570    -9.3570     3.5310 c3         1 L73       0.085800
      8 C07          6.8000   -10.6440     3.8860 c          1 L73       0.558100
      9 C12          8.4160   -13.1110     1.3220 ca         1 L73      -0.088300
     10 C13          8.5300   -11.8710     0.6940 ca         1 L73      -0.102000
     11 C14          8.5310   -11.7680    -0.6870 ca         1 L73      -0.108500
     12 C15          8.4200   -12.8950    -1.5060 ca         1 L73      -0.062300
     13 C16          8.3120   -14.1300    -0.8720 ca         1 L73      -0.108500
     14 C17          8.3100   -14.2360     0.5140 ca         1 L73      -0.102000
     15 C18          8.4370   -12.7390    -3.0230 c3         1 L73       0.000300
     16 C19          7.2880   -11.8190    -3.4560 c3         1 L73      -0.081767
     17 C20          8.2730   -14.0780    -3.7440 c3         1 L73      -0.081767
     18 C21          9.7740   -12.1210    -3.4540 c3         1 L73      -0.081767
     19 C22          6.0050   -14.0580     2.8330 c          1 L73       0.599100
     20 C25          5.4100   -16.4080     2.7190 c3         1 L73       0.035700
     21 C26          6.1680   -17.7350     2.8650 c3         1 L73      -0.043100
     22 C27          7.3980   -17.7640     2.0000 ca         1 L73      -0.047300
     23 C28          8.6660   -17.6380     2.5490 ca         1 L73      -0.145000
     24 C29          9.7810   -17.6330     1.7150 ca         1 L73      -0.072000
     25 C30          9.6420   -17.7440     0.3450 ca         1 L73      -0.140000
     26 C31          8.3670   -17.8660    -0.2140 ca         1 L73       0.143100
     27 C33          7.0450   -18.0350    -2.1780 c3         1 L73       0.145900
     28 C34          7.2510   -17.8810     0.6170 ca         1 L73      -0.198000
     29 C35          4.0890   -16.4730     3.4890 c          1 L73       0.589100
     30 C38          2.9850   -17.3680     1.4340 c3         1 L73       0.095300
     31 N05          6.8410    -8.1570     3.6620 n7         1 L73      -0.848400
     32 N09          6.4400   -11.7270     3.1810 ns         1 L73      -0.491900
     33 N24          6.2240   -15.3270     3.2040 ns         1 L73      -0.478900
     34 O08          7.6350   -10.6730     4.7800 o          1 L73      -0.621100
     35 O23          5.1270   -13.7360     2.0480 o          1 L73      -0.609100
     36 O32          8.3120   -17.9550    -1.5570 os         1 L73      -0.341100
     37 O36          4.0240   -16.1000     4.6490 o          1 L73      -0.598100
     38 H1           7.0510   -13.2050     4.4980 h1         1 L73       0.083700
     39 H2           8.7730   -14.1990     3.1290 hc         1 L73       0.063200
     40 H3           9.0350   -12.4750     3.2720 hc         1 L73       0.063200
     41 H4          11.4930    -5.3080     1.3730 hc         1 L73       0.032033
     42 H5          10.0550    -4.4990     1.9890 hc         1 L73       0.032033
     43 H6          11.1260    -5.3550     3.0940 hc         1 L73       0.032033
     44 H7           9.4720    -6.6820     0.8770 hc         1 L73       0.036700
     45 H8          10.5280    -7.5300     1.9840 hc         1 L73       0.036700
     46 H9           9.1270    -6.7530     3.9100 hc         1 L73       0.046700
     47 H10          8.0540    -5.9290     2.7930 hc         1 L73       0.046700
     48 H11          7.5020    -8.0890     1.7000 h1         1 L73       0.030700
     49 H12          8.6220    -8.9270     2.7620 h1         1 L73       0.030700
     50 H13          5.1930    -9.2980     4.2020 h1         1 L73       0.070700
     51 H14          5.6530    -9.4140     2.5170 h1         1 L73       0.070700
     52 H15          8.6340   -10.9740     1.2930 ha         1 L73       0.113500
     53 H16          8.6280   -10.7830    -1.1280 ha         1 L73       0.111000
     54 H17          8.2350   -15.0380    -1.4540 ha         1 L73       0.111000
     55 H18          8.2330   -15.2200     0.9640 ha         1 L73       0.113500
     56 H19          7.3670   -10.8270    -3.0100 hc         1 L73       0.034700
     57 H20          7.2930   -11.6920    -4.5400 hc         1 L73       0.034700
     58 H21          6.3210   -12.2380    -3.1720 hc         1 L73       0.034700
     59 H22          9.0830   -14.7730    -3.5160 hc         1 L73       0.034700
     60 H23          7.3290   -14.5630    -3.4900 hc         1 L73       0.034700
     61 H24          8.2770   -13.9150    -4.8220 hc         1 L73       0.034700
     62 H25          9.9310   -11.1340    -3.0160 hc         1 L73       0.034700
     63 H26         10.6130   -12.7550    -3.1590 hc         1 L73       0.034700
     64 H27          9.8070   -12.0080    -4.5400 hc         1 L73       0.034700
     65 H28          5.2210   -16.2330     1.6580 h1         1 L73       0.087700
     66 H29          5.5010   -18.5560     2.5960 hc         1 L73       0.064200
     67 H30          6.4340   -17.8830     3.9160 hc         1 L73       0.064200
     68 H31          8.7880   -17.5480     3.6210 ha         1 L73       0.114000
     69 H32         10.7720   -17.5350     2.1420 ha         1 L73       0.119000
     70 H33         10.5100   -17.7330    -0.3020 ha         1 L73       0.131000
     71 H34          7.2270   -18.0790    -3.2490 h1         1 L73       0.041700
     72 H35          6.4980   -18.9330    -1.8780 h1         1 L73       0.041700
     73 H36          6.4280   -17.1590    -1.9620 h1         1 L73       0.041700
     74 H37          6.2520   -17.9810     0.2090 ha         1 L73       0.113000
     75 H38          2.0070   -17.7980     1.2390 h1         1 L73       0.039367
     76 H39          3.1100   -16.5060     0.7760 h1         1 L73       0.039367
     77 H40          3.7300   -18.1180     1.1700 h1         1 L73       0.039367
     78 H41          7.2130    -8.1030     4.6030 hn         1 L73       0.429000
     79 H43          5.7660   -11.6370     2.4350 hn         1 L73       0.343500
     80 H44          6.8670   -15.5130     3.9590 hn         1 L73       0.327500
     81 H45          2.1860   -17.0690     3.3610 hn         1 L73       0.319500
     82 N37          3.0440   -17.0040     2.8340 ns         1 L73      -0.506900
@<TRIPOS>BOND
     1     1     2 1   
     2     1    19 1   
     3     1    32 1   
     4     1    38 1   
     5     2     9 1   
     6     2    39 1   
     7     2    40 1   
     8     3     4 1   
     9     3    41 1   
    10     3    42 1   
    11     3    43 1   
    12     4     5 1   
    13     4    44 1   
    14     4    45 1   
    15     5     6 1   
    16     5    46 1   
    17     5    47 1   
    18     6    31 1   
    19     6    48 1   
    20     6    49 1   
    21     7     8 1   
    22     7    31 1   
    23     7    50 1   
    24     7    51 1   
    25     8    32 1   
    26     8    34 2   
    27     9    10 ar  
    28     9    14 ar  
    29    10    11 ar  
    30    10    52 1   
    31    11    12 ar  
    32    11    53 1   
    33    12    13 ar  
    34    12    15 1   
    35    13    14 ar  
    36    13    54 1   
    37    14    55 1   
    38    15    16 1   
    39    15    17 1   
    40    15    18 1   
    41    16    56 1   
    42    16    57 1   
    43    16    58 1   
    44    17    59 1   
    45    17    60 1   
    46    17    61 1   
    47    18    62 1   
    48    18    63 1   
    49    18    64 1   
    50    19    33 1   
    51    19    35 2   
    52    20    21 1   
    53    20    29 1   
    54    20    33 1   
    55    20    65 1   
    56    21    22 1   
    57    21    66 1   
    58    21    67 1   
    59    22    23 ar  
    60    22    28 ar  
    61    23    24 ar  
    62    23    68 1   
    63    24    25 ar  
    64    24    69 1   
    65    25    26 ar  
    66    25    70 1   
    67    26    28 ar  
    68    26    36 1   
    69    27    36 1   
    70    27    71 1   
    71    27    72 1   
    72    27    73 1   
    73    28    74 1   
    74    29    37 2   
    75    29    82 1   
    76    30    75 1   
    77    30    76 1   
    78    30    77 1   
    79    30    82 1   
    80    31    78 1   
    81    32    79 1   
    82    33    80 1   
    83    81    82 1   
@<TRIPOS>SUBSTRUCTURE
     1 L73         1 TEMP              0 ****  ****    0 ROOT
