@<TRIPOS>MOLECULE
L74
   42    45     1     0     0
SMALL
No Charge or Current Charge


@<TRIPOS>ATOM
      1 C1           6.1330     1.0840    -0.5180 ca         1 L74      -0.202000
      2 C10         -0.5490    -0.2320    -0.7700 c6         1 L74       0.164800
      3 C11         -1.0230     1.7210     0.7370 c6         1 L74       0.164800
      4 C12          0.3640     2.3230     0.3280 c6         1 L74       0.158800
      5 C13         -2.9450     0.4490    -0.3300 ca         1 L74       0.308000
      6 C14         -3.5270     0.0390    -1.5450 ca         1 L74      -0.164500
      7 C15         -4.8980    -0.2710    -1.6180 ca         1 L74      -0.069000
      8 C16         -5.7000    -0.1720    -0.4700 ca         1 L74       0.080000
      9 C17         -5.1330     0.2360     0.7480 ca         1 L74      -0.069000
     10 C18         -3.7620     0.5470     0.8160 ca         1 L74      -0.164500
     11 C2           6.7880    -0.1580    -0.6740 ca         1 L74       0.357900
     12 C3           4.8160     1.1100    -0.0230 ca         1 L74      -0.013000
     13 C4           4.2540    -0.1350     0.2810 ca         1 L74      -0.122800
     14 C5           4.9500    -1.3070     0.1020 ca         1 L74       0.365500
     15 C6           2.8630    -1.8570     0.9250 cc         1 L74      -0.151100
     16 C7           2.9480    -0.4790     0.7970 cd         1 L74      -0.139400
     17 C8           1.8520     0.5040     1.1380 c3         1 L74       0.244000
     18 C9           0.8180     0.4350    -1.1370 c6         1 L74       0.158800
     19 N1           6.2100    -1.3500    -0.3700 nb         1 L74      -0.686000
     20 N2           4.1180    -2.3370     0.4870 na         1 L74      -0.327400
     21 N3           1.3740     1.2810    -0.0330 n3         1 L74      -0.714600
     22 N4          -1.5650     0.7580    -0.2780 nh         1 L74      -0.788400
     23 Cl1         -7.4130    -0.5600    -0.5570 cl         1 L74      -0.211000
     24 H1           6.6440     2.0050    -0.7800 ha         1 L74       0.121000
     25 H2          -0.9190    -0.7590    -1.6610 h1         1 L74       0.041700
     26 H3          -0.3780    -0.9970     0.0020 h1         1 L74       0.041700
     27 H4          -0.9210     1.2170     1.7090 h1         1 L74       0.041700
     28 H5          -1.7270     2.5550     0.8770 h1         1 L74       0.041700
     29 H6           0.2020     2.9920    -0.5300 h1         1 L74       0.063450
     30 H7           0.7350     2.9560     1.1480 h1         1 L74       0.063450
     31 H8          -2.9200    -0.0260    -2.4430 ha         1 L74       0.116500
     32 H9          -5.3380    -0.5830    -2.5620 ha         1 L74       0.125500
     33 H10         -5.7540     0.3110     1.6370 ha         1 L74       0.125500
     34 H11         -3.3400     0.8510     1.7690 ha         1 L74       0.116500
     35 H12          7.8080    -0.1990    -1.0560 h4         1 L74       0.017100
     36 H13          4.2660     2.0380     0.1120 ha         1 L74       0.131000
     37 H14          2.0570    -2.4990     1.2730 h4         1 L74       0.213000
     38 H15          1.0240    -0.0470     1.6040 h1         1 L74       0.036200
     39 H16          2.2450     1.1910     1.9010 h1         1 L74       0.036200
     40 H17          1.5310    -0.3490    -1.4310 h1         1 L74       0.063450
     41 H18          0.6610     1.0560    -2.0310 h1         1 L74       0.063450
     42 H19          4.3950    -3.3110     0.4520 hn         1 L74       0.362000
@<TRIPOS>BOND
     1     1    11 ar  
     2     1    12 ar  
     3     1    24 1   
     4     2    18 1   
     5     2    22 1   
     6     2    25 1   
     7     2    26 1   
     8     3     4 1   
     9     3    22 1   
    10     3    27 1   
    11     3    28 1   
    12     4    21 1   
    13     4    29 1   
    14     4    30 1   
    15     5     6 ar  
    16     5    10 ar  
    17     5    22 1   
    18     6     7 ar  
    19     6    31 1   
    20     7     8 ar  
    21     7    32 1   
    22     8     9 ar  
    23     8    23 1   
    24     9    10 ar  
    25     9    33 1   
    26    10    34 1   
    27    11    19 ar  
    28    11    35 1   
    29    12    13 ar  
    30    12    36 1   
    31    13    14 ar  
    32    13    16 1   
    33    14    19 ar  
    34    14    20 1   
    35    15    16 2   
    36    15    20 1   
    37    15    37 1   
    38    16    17 1   
    39    17    21 1   
    40    17    38 1   
    41    17    39 1   
    42    18    21 1   
    43    18    40 1   
    44    18    41 1   
    45    20    42 1   
@<TRIPOS>SUBSTRUCTURE
     1 L74         1 TEMP              0 ****  ****    0 ROOT
