@<TRIPOS>MOLECULE
L74
   42    45     1     0     0
SMALL
abcg2


@<TRIPOS>ATOM
      1 C1           5.9750     1.2080    -0.6190 ca         1 L74      -0.202000
      2 C10         -0.6100    -0.2220    -0.7750 c6         1 L74       0.164800
      3 C11         -1.0390     1.5700     0.8080 c6         1 L74       0.164800
      4 C12          0.3620     2.1000     0.5170 c6         1 L74       0.158800
      5 C13         -2.8980     0.5250    -0.3690 ca         1 L74       0.308000
      6 C14         -3.4570    -0.1530    -1.4660 ca         1 L74      -0.164500
      7 C15         -4.8140    -0.4050    -1.5490 ca         1 L74      -0.069000
      8 C16         -5.6600     0.0180    -0.5350 ca         1 L74       0.080000
      9 C17         -5.1440     0.6850     0.5590 ca         1 L74      -0.069000
     10 C18         -3.7800     0.9270     0.6450 ca         1 L74      -0.164500
     11 C2           6.7090     0.0250    -0.7630 ca         1 L74       0.357900
     12 C3           4.6880     1.1630    -0.1110 ca         1 L74      -0.013000
     13 C4           4.1810    -0.0830     0.2470 ca         1 L74      -0.122800
     14 C5           5.0270    -1.2000     0.0510 ca         1 L74       0.365500
     15 C6           3.1070    -1.9270     0.9020 cc         1 L74      -0.151100
     16 C7           2.9570    -0.5730     0.8010 cd         1 L74      -0.139400
     17 C8           1.7740     0.2390     1.2010 c3         1 L74       0.244000
     18 C9           0.7740     0.3640    -1.0220 c6         1 L74       0.158800
     19 N1           6.2570    -1.1780    -0.4380 nb         1 L74      -0.686000
     20 N2           4.3460    -2.3050     0.4580 na         1 L74      -0.327400
     21 N3           1.3160     1.0880     0.1110 n3         1 L74      -0.714600
     22 N4          -1.5400     0.8080    -0.3230 nh         1 L74      -0.788400
     23 CL1         -7.3660    -0.2950    -0.6420 cl         1 L74      -0.211000
     24 H1           6.4230     2.1470    -0.9120 ha         1 L74       0.121000
     25 H2          -0.9530    -0.6590    -1.7100 h1         1 L74       0.041700
     26 H3          -0.5620    -1.0420    -0.0440 h1         1 L74       0.041700
     27 H4          -1.0450     0.9740     1.7340 h1         1 L74       0.041700
     28 H5          -1.6850     2.4320     0.9820 h1         1 L74       0.041700
     29 H6           0.2890     2.8410    -0.2850 h1         1 L74       0.063450
     30 H7           0.7350     2.6210     1.4020 h1         1 L74       0.063450
     31 H8          -2.8380    -0.4780    -2.2900 ha         1 L74       0.116500
     32 H9          -5.2060    -0.9210    -2.4150 ha         1 L74       0.125500
     33 H10         -5.7920     1.0120     1.3620 ha         1 L74       0.125500
     34 H11         -3.4190     1.4270     1.5320 ha         1 L74       0.116500
     35 H12          7.7160     0.0660    -1.1660 h4         1 L74       0.017100
     36 H13          4.0930     2.0610    -0.0010 ha         1 L74       0.131000
     37 H14          2.4090    -2.6640     1.2670 h4         1 L74       0.213000
     38 H15          1.0010    -0.4310     1.6060 h1         1 L74       0.036200
     39 H16          2.0490     0.9040     2.0270 h1         1 L74       0.036200
     40 H17          1.4550    -0.4400    -1.3080 h1         1 L74       0.063450
     41 H18          0.7170     1.0520    -1.8720 h1         1 L74       0.063450
     42 H19          4.6920    -3.2500     0.4280 hn         1 L74       0.362000
@<TRIPOS>BOND
     1     1    11 ar  
     2     1    12 ar  
     3     1    24 1   
     4     2    18 1   
     5     2    22 1   
     6     2    25 1   
     7     2    26 1   
     8     3     4 1   
     9     3    22 1   
    10     3    27 1   
    11     3    28 1   
    12     4    21 1   
    13     4    29 1   
    14     4    30 1   
    15     5     6 ar  
    16     5    10 ar  
    17     5    22 1   
    18     6     7 ar  
    19     6    31 1   
    20     7     8 ar  
    21     7    32 1   
    22     8     9 ar  
    23     8    23 1   
    24     9    10 ar  
    25     9    33 1   
    26    10    34 1   
    27    11    19 ar  
    28    11    35 1   
    29    12    13 ar  
    30    12    36 1   
    31    13    14 ar  
    32    13    16 1   
    33    14    19 ar  
    34    14    20 1   
    35    15    16 2   
    36    15    20 1   
    37    15    37 1   
    38    16    17 1   
    39    17    21 1   
    40    17    38 1   
    41    17    39 1   
    42    18    21 1   
    43    18    40 1   
    44    18    41 1   
    45    20    42 1   
@<TRIPOS>SUBSTRUCTURE
     1 L74         1 TEMP              0 ****  ****    0 ROOT
