@<TRIPOS>MOLECULE
L75
   96   101     1     0     0
SMALL
abcg2


@<TRIPOS>ATOM
      1 N1           0.5320    -0.6060     5.0020 n3         1 L75      -0.714600
      2 C1           1.4120    -0.9410     3.9020 c6         1 L75       0.167800
      3 C2           1.2700     0.0760     2.7720 c6         1 L75       0.114500
      4 C3           2.1630    -0.3730     1.6130 c          1 L75       0.594100
      5 O1           1.9120    -1.3910     0.9830 o          1 L75      -0.589100
      6 N2           3.2130     0.4250     1.3790 ns         1 L75      -0.511900
      7 C4           4.2220     0.2600     0.3250 c3         1 L75       0.139400
      8 C5           5.1930     1.4290     0.4750 c3         1 L75      -0.104767
      9 C6           3.5660     0.3280    -1.0560 c3         1 L75      -0.104767
     10 C7           4.9850    -1.0520     0.5020 c3         1 L75      -0.104767
     11 N3          -0.1080     0.1380     2.3290 n3         1 L75      -0.719600
     12 C8          -1.0100     0.4110     3.4310 c6         1 L75       0.182800
     13 C9          -0.8430    -0.6040     4.5410 c6         1 L75       0.157800
     14 C10         -0.3260     1.0170     1.1890 c3         1 L75       0.149800
     15 C11         -1.0560     0.3160     0.0480 c3         1 L75       0.160300
     16 O2          -2.3550    -0.0910     0.4310 oh         1 L75      -0.644000
     17 C12         -1.0420     1.1820    -1.2080 c3         1 L75      -0.101400
     18 C13         -1.5750     0.4810    -2.4650 c3         1 L75      -0.128700
     19 C14         -3.1070     0.5350    -2.6090 c3         1 L75      -0.025100
     20 C15         -3.5550    -0.0890    -3.9020 ca         1 L75      -0.090300
     21 C16         -3.5490    -1.4750    -4.0530 ca         1 L75      -0.106000
     22 C17         -3.8780    -2.0620    -5.2680 ca         1 L75      -0.117500
     23 C18         -4.2190    -1.2660    -6.3560 ca         1 L75      -0.117000
     24 C19         -4.2370     0.1150    -6.2150 ca         1 L75      -0.117500
     25 C20         -3.9080     0.6970    -4.9960 ca         1 L75      -0.106000
     26 C21         -0.9600     1.1150    -3.6980 c          1 L75       0.602100
     27 O3          -1.0760     2.3090    -3.9330 o          1 L75      -0.612100
     28 N4          -0.2970     0.2600    -4.4990 ns         1 L75      -0.495900
     29 C22          0.3520     0.6220    -5.7270 c5         1 L75       0.118000
     30 C23         -0.3270     0.0400    -6.9960 c5         1 L75       0.158300
     31 O4          -0.7970    -1.2670    -6.7670 oh         1 L75      -0.659000
     32 C24          0.8220    -0.0360    -8.0060 c5         1 L75      -0.032100
     33 C25          2.0320    -0.2700    -7.1440 ca         1 L75      -0.070300
     34 C26          3.2790    -0.7700    -7.4810 ca         1 L75      -0.095000
     35 C27          4.2460    -0.8960    -6.4870 ca         1 L75      -0.106000
     36 C28          3.9680    -0.5250    -5.1760 ca         1 L75      -0.116000
     37 C29          2.7160    -0.0180    -4.8400 ca         1 L75      -0.087000
     38 C30          1.7610     0.1040    -5.8330 ca         1 L75      -0.107300
     39 C31          0.7430    -1.4910     6.1300 c3         1 L75       0.234000
     40 C32         -1.2700     1.5920    10.7690 ca         1 L75      -0.093000
     41 C33         -0.4290     1.5990     9.6660 ca         1 L75      -0.105000
     42 C34         -0.4110     0.4470     8.8990 ca         1 L75       0.058100
     43 C35         -1.1830    -0.6820     9.1850 ca         1 L75      -0.112800
     44 C36         -2.0220    -0.6680    10.3000 ca         1 L75      -0.060000
     45 C37         -2.0550     0.4750    11.0810 ca         1 L75      -0.132000
     46 O5           0.3270     0.2350     7.7870 os         1 L75      -0.156200
     47 C38          0.0350    -1.0210     7.3480 cc         1 L75       0.026900
     48 C39         -0.8700    -1.6250     8.1480 cd         1 L75      -0.234200
     49 H11          1.2020    -1.9480     3.5040 h1         1 L75       0.051700
     50 H12          2.4460    -0.9350     4.2570 h1         1 L75       0.051700
     51 H21          1.6150     1.0530     3.1550 h1         1 L75       0.032700
     52 H1           3.2990     1.2420     1.9630 hn         1 L75       0.310500
     53 H51          5.9630     1.3760    -0.2940 hc         1 L75       0.045033
     54 H52          4.6810     2.3880     0.3690 hc         1 L75       0.045033
     55 H53          5.6890     1.4120     1.4470 hc         1 L75       0.045033
     56 H61          3.0540     1.2820    -1.1920 hc         1 L75       0.045033
     57 H62          4.3270     0.2440    -1.8340 hc         1 L75       0.045033
     58 H63          2.8430    -0.4740    -1.2020 hc         1 L75       0.045033
     59 H71          5.4510    -1.0960     1.4890 hc         1 L75       0.045033
     60 H72          4.3370    -1.9190     0.3900 hc         1 L75       0.045033
     61 H73          5.7780    -1.1250    -0.2440 hc         1 L75       0.045033
     62 H81         -2.0360     0.3690     3.0640 h1         1 L75       0.041200
     63 H82         -0.8530     1.4210     3.8460 h1         1 L75       0.041200
     64 H91         -1.1470    -1.6020     4.1820 h1         1 L75       0.048700
     65 H92         -1.5100    -0.3380     5.3630 h1         1 L75       0.048700
     66 H101        -0.8820     1.9190     1.4850 h1         1 L75       0.034200
     67 H102         0.6290     1.3920     0.8070 h1         1 L75       0.034200
     68 H111        -0.5160    -0.6110    -0.1670 h1         1 L75       0.099700
     69 H2          -2.8750     0.6990     0.6180 ho         1 L75       0.429000
     70 H121        -1.5840     2.1180    -1.0340 hc         1 L75       0.054200
     71 H122        -0.0000     1.4690    -1.3810 hc         1 L75       0.054200
     72 H131        -1.2760    -0.5730    -2.4170 hc         1 L75       0.062700
     73 H141        -3.5550     0.0170    -1.7620 hc         1 L75       0.064700
     74 H142        -3.4340     1.5760    -2.5590 hc         1 L75       0.064700
     75 H161        -3.2780    -2.1030    -3.2110 ha         1 L75       0.120500
     76 H171        -3.8660    -3.1400    -5.3660 ha         1 L75       0.116000
     77 H181        -4.4730    -1.7200    -7.3050 ha         1 L75       0.116000
     78 H191        -4.5050     0.7420    -7.0560 ha         1 L75       0.116000
     79 H201        -3.9140     1.7750    -4.8990 ha         1 L75       0.120500
     80 H3          -0.2400    -0.7060    -4.2170 hn         1 L75       0.323500
     81 H221         0.3500     1.7130    -5.7990 h1         1 L75       0.095700
     82 H231        -1.1360     0.6920    -7.3420 h1         1 L75       0.047700
     83 H4          -1.6180    -1.2160    -6.2660 ho         1 L75       0.452000
     84 H241         0.6600    -0.8080    -8.7610 hc         1 L75       0.065200
     85 H242         0.9100     0.9170    -8.5360 hc         1 L75       0.065200
     86 H261         3.5020    -1.0680    -8.4990 ha         1 L75       0.115000
     87 H271         5.2210    -1.2950    -6.7370 ha         1 L75       0.111000
     88 H281         4.7280    -0.6360    -4.4120 ha         1 L75       0.110000
     89 H291         2.4920     0.2650    -3.8190 ha         1 L75       0.116000
     90 H311         0.4190    -2.5250     5.9310 h1         1 L75       0.053200
     91 H312         1.8180    -1.5350     6.3320 h1         1 L75       0.053200
     92 H331         0.1800     2.4590     9.4200 ha         1 L75       0.130000
     93 H361        -2.6340    -1.5260    10.5480 ha         1 L75       0.118000
     94 H371        -2.6970     0.5090    11.9510 ha         1 L75       0.114000
     95 H391        -1.2700    -2.6160     8.0110 ha         1 L75       0.212000
     96 H321        -1.3210     2.4690    11.4000 ha         1 L75       0.115000
@<TRIPOS>BOND
     1     1     2 1   
     2     1    13 1   
     3     1    39 1   
     4     2     3 1   
     5     2    49 1   
     6     2    50 1   
     7     3     4 1   
     8     3    11 1   
     9     3    51 1   
    10     4     5 2   
    11     4     6 1   
    12     6     7 1   
    13     6    52 1   
    14     7     8 1   
    15     7     9 1   
    16     7    10 1   
    17     8    53 1   
    18     8    54 1   
    19     8    55 1   
    20     9    56 1   
    21     9    57 1   
    22     9    58 1   
    23    10    59 1   
    24    10    60 1   
    25    10    61 1   
    26    11    12 1   
    27    11    14 1   
    28    12    13 1   
    29    12    62 1   
    30    12    63 1   
    31    13    64 1   
    32    13    65 1   
    33    14    15 1   
    34    14    66 1   
    35    14    67 1   
    36    15    16 1   
    37    15    17 1   
    38    15    68 1   
    39    16    69 1   
    40    17    18 1   
    41    17    70 1   
    42    17    71 1   
    43    18    19 1   
    44    18    26 1   
    45    18    72 1   
    46    19    20 1   
    47    19    73 1   
    48    19    74 1   
    49    20    21 ar  
    50    20    25 ar  
    51    21    22 ar  
    52    21    75 1   
    53    22    23 ar  
    54    22    76 1   
    55    23    24 ar  
    56    23    77 1   
    57    24    25 ar  
    58    24    78 1   
    59    25    79 1   
    60    26    27 2   
    61    26    28 1   
    62    28    29 1   
    63    28    80 1   
    64    29    30 1   
    65    29    38 1   
    66    29    81 1   
    67    30    31 1   
    68    30    32 1   
    69    30    82 1   
    70    31    83 1   
    71    32    33 1   
    72    32    84 1   
    73    32    85 1   
    74    33    34 ar  
    75    33    38 ar  
    76    34    35 ar  
    77    34    86 1   
    78    35    36 ar  
    79    35    87 1   
    80    36    37 ar  
    81    36    88 1   
    82    37    38 ar  
    83    37    89 1   
    84    39    47 1   
    85    39    90 1   
    86    39    91 1   
    87    40    41 ar  
    88    40    45 ar  
    89    40    96 1   
    90    41    42 ar  
    91    41    92 1   
    92    42    43 ar  
    93    42    46 1   
    94    43    44 ar  
    95    43    48 1   
    96    44    45 ar  
    97    44    93 1   
    98    45    94 1   
    99    46    47 1   
   100    47    48 2   
   101    48    95 1   
@<TRIPOS>SUBSTRUCTURE
     1 L75         1 TEMP              0 ****  ****    0 ROOT
