@<TRIPOS>MOLECULE
L75
   96   101     1     0     0
SMALL
No Charge or Current Charge


@<TRIPOS>ATOM
      1 N1           0.7350     0.3090     4.8390 n3         1 L75      -0.714600
      2 C1           1.3970     0.0070     3.5370 c6         1 L75       0.167800
      3 C2           0.7870     0.8240     2.3440 c6         1 L75       0.114500
      4 C3           1.6540     0.6490     1.0440 c          1 L75       0.594100
      5 O1           1.6770     1.5170     0.1800 o          1 L75      -0.589100
      6 N2           2.3700    -0.5380     0.9210 ns         1 L75      -0.511900
      7 C4           3.1790    -0.9790    -0.2230 c3         1 L75       0.139400
      8 C5           3.8030    -2.3400     0.1610 c3         1 L75      -0.104767
      9 C6           4.3200     0.0270    -0.5170 c3         1 L75      -0.104767
     10 C7           2.2780    -1.1720    -1.4680 c3         1 L75      -0.104767
     11 N3          -0.7060     0.5200     2.2300 n3         1 L75      -0.719600
     12 C8          -1.3740     0.8260     3.5340 c6         1 L75       0.182800
     13 C9          -0.7350     0.0610     4.7300 c6         1 L75       0.157800
     14 C10         -1.4170     1.1740     1.0840 c3         1 L75       0.149800
     15 C11         -1.2810     0.4170    -0.2710 c3         1 L75       0.160300
     16 O2          -1.0270    -0.9530     0.0500 oh         1 L75      -0.644000
     17 C12         -2.5460     0.5120    -1.1570 c3         1 L75      -0.101400
     18 C13         -2.3530    -0.0490    -2.5960 c3         1 L75      -0.128700
     19 C14         -3.6980    -0.2420    -3.3400 c3         1 L75      -0.025100
     20 C15         -3.5020    -0.8960    -4.7040 ca         1 L75      -0.090300
     21 C16         -3.2880    -2.2840    -4.8000 ca         1 L75      -0.106000
     22 C17         -3.0900    -2.8870    -6.0540 ca         1 L75      -0.117500
     23 C18         -3.1030    -2.1040    -7.2200 ca         1 L75      -0.117000
     24 C19         -3.3140    -0.7180    -7.1310 ca         1 L75      -0.117500
     25 C20         -3.5120    -0.1160    -5.8770 ca         1 L75      -0.106000
     26 C21         -1.4170     0.8430    -3.4390 c          1 L75       0.602100
     27 O3          -1.6770     2.0130    -3.6870 o          1 L75      -0.612100
     28 N4          -0.2810     0.2130    -3.9030 ns         1 L75      -0.495900
     29 C22          0.4410     0.8130    -5.0390 c5         1 L75       0.118000
     30 C23          0.2220    -0.1900    -6.2730 c5         1 L75       0.158300
     31 O4          -0.1170    -1.5360    -5.8910 oh         1 L75      -0.659000
     32 C24          1.5860    -0.1800    -7.0690 c5         1 L75      -0.032100
     33 C25          2.5640     0.2700    -6.0150 ca         1 L75      -0.070300
     34 C26          3.9640     0.2080    -6.0980 ca         1 L75      -0.095000
     35 C27          4.7350     0.7240    -5.0380 ca         1 L75      -0.106000
     36 C28          4.1000     1.3050    -3.9210 ca         1 L75      -0.116000
     37 C29          2.6940     1.3580    -3.8550 ca         1 L75      -0.087000
     38 C30          1.9420     0.8190    -4.9120 ca         1 L75      -0.107300
     39 C31          1.3680    -0.4030     5.9800 c3         1 L75       0.234000
     40 C32         -0.1080     2.1330    11.2610 ca         1 L75      -0.093000
     41 C33          0.6790     2.2430    10.0930 ca         1 L75      -0.105000
     42 C34          0.5740     1.2310     9.1300 ca         1 L75       0.058100
     43 C35         -0.2680     0.1660     9.3150 ca         1 L75      -0.112800
     44 C36         -1.0640     0.0190    10.4560 ca         1 L75      -0.060000
     45 C37         -0.9750     1.0260    11.4420 ca         1 L75      -0.132000
     46 O5           1.2630     1.1720     7.9340 os         1 L75      -0.156200
     47 C38          0.8170    -0.0090     7.3320 cc         1 L75       0.026900
     48 C39         -0.1060    -0.6360     8.1480 cd         1 L75      -0.234200
     49 H11          1.3100    -1.0680     3.3190 h1         1 L75       0.051700
     50 H12          2.4700     0.2400     3.6060 h1         1 L75       0.051700
     51 H21          0.9030     1.8880     2.5990 h1         1 L75       0.032700
     52 H1           2.2560    -1.2020     1.6750 hn         1 L75       0.310500
     53 H51          4.4170    -2.7350    -0.6580 hc         1 L75       0.045033
     54 H52          4.4440    -2.2420     1.0460 hc         1 L75       0.045033
     55 H53          3.0250    -3.0800     0.3860 hc         1 L75       0.045033
     56 H61          4.9250     0.2040     0.3800 hc         1 L75       0.045033
     57 H62          4.9830    -0.3580    -1.3010 hc         1 L75       0.045033
     58 H63          3.9330     0.9920    -0.8610 hc         1 L75       0.045033
     59 H71          1.5000    -1.9200    -1.2730 hc         1 L75       0.045033
     60 H72          1.7790    -0.2410    -1.7510 hc         1 L75       0.045033
     61 H73          2.8670    -1.5120    -2.3280 hc         1 L75       0.045033
     62 H81         -2.4400     0.5600     3.4880 h1         1 L75       0.041200
     63 H82         -1.3220     1.9060     3.7390 h1         1 L75       0.041200
     64 H91         -0.9300    -1.0130     4.6000 h1         1 L75       0.048700
     65 H92         -1.2490     0.3730     5.6500 h1         1 L75       0.048700
     66 H101        -2.4910     1.2210     1.3130 h1         1 L75       0.034200
     67 H102        -1.0830     2.2130     0.9600 h1         1 L75       0.034200
     68 H111        -0.4360     0.8450    -0.8250 h1         1 L75       0.099700
     69 H2          -0.8450    -0.9010     1.0210 ho         1 L75       0.429000
     70 H121        -3.3620    -0.0290    -0.6600 hc         1 L75       0.054200
     71 H122        -2.8650     1.5600    -1.2210 hc         1 L75       0.054200
     72 H131        -1.8940    -1.0410    -2.5080 hc         1 L75       0.062700
     73 H141        -4.3640    -0.8650    -2.7290 hc         1 L75       0.064700
     74 H142        -4.2020     0.7270    -3.4450 hc         1 L75       0.064700
     75 H161        -3.2750    -2.8980    -3.9010 ha         1 L75       0.120500
     76 H171        -2.9280    -3.9610    -6.1220 ha         1 L75       0.116000
     77 H181        -2.9500    -2.5700    -8.1920 ha         1 L75       0.116000
     78 H191        -3.3240    -0.1100    -8.0340 ha         1 L75       0.116000
     79 H201        -3.6710     0.9590    -5.8180 ha         1 L75       0.120500
     80 H3          -0.1620    -0.7590    -3.6510 hn         1 L75       0.323500
     81 H221         0.0980     1.8230    -5.3050 h1         1 L75       0.095700
     82 H231        -0.5790     0.1970    -6.9190 h1         1 L75       0.047700
     83 H4          -1.0990    -1.5880    -5.8920 ho         1 L75       0.452000
     84 H241         1.8340    -1.1600    -7.4900 hc         1 L75       0.065200
     85 H242         1.5510     0.5320    -7.9010 hc         1 L75       0.065200
     86 H261         4.4480    -0.2240    -6.9720 ha         1 L75       0.115000
     87 H271         5.8210     0.6870    -5.0880 ha         1 L75       0.111000
     88 H281         4.6980     1.7190    -3.1130 ha         1 L75       0.110000
     89 H291         2.1990     1.8130    -3.0000 ha         1 L75       0.116000
     90 H311         1.2490    -1.4890     5.8610 h1         1 L75       0.053200
     91 H312         2.4480    -0.2010     5.9900 h1         1 L75       0.053200
     92 H331         1.3480     3.0870     9.9430 ha         1 L75       0.130000
     93 H361        -1.7250    -0.8370    10.5790 ha         1 L75       0.118000
     94 H371        -1.5770     0.9520    12.3450 ha         1 L75       0.114000
     95 H391        -0.6140    -1.5710     7.9270 ha         1 L75       0.212000
     96 H321        -0.0480     2.9030    12.0270 ha         1 L75       0.115000
@<TRIPOS>BOND
     1     1     2 1   
     2     1    13 1   
     3     1    39 1   
     4     2     3 1   
     5     2    49 1   
     6     2    50 1   
     7     3     4 1   
     8     3    11 1   
     9     3    51 1   
    10     4     5 2   
    11     4     6 1   
    12     6     7 1   
    13     6    52 1   
    14     7     8 1   
    15     7     9 1   
    16     7    10 1   
    17     8    53 1   
    18     8    54 1   
    19     8    55 1   
    20     9    56 1   
    21     9    57 1   
    22     9    58 1   
    23    10    59 1   
    24    10    60 1   
    25    10    61 1   
    26    11    12 1   
    27    11    14 1   
    28    12    13 1   
    29    12    62 1   
    30    12    63 1   
    31    13    64 1   
    32    13    65 1   
    33    14    15 1   
    34    14    66 1   
    35    14    67 1   
    36    15    16 1   
    37    15    17 1   
    38    15    68 1   
    39    16    69 1   
    40    17    18 1   
    41    17    70 1   
    42    17    71 1   
    43    18    19 1   
    44    18    26 1   
    45    18    72 1   
    46    19    20 1   
    47    19    73 1   
    48    19    74 1   
    49    20    21 ar  
    50    20    25 ar  
    51    21    22 ar  
    52    21    75 1   
    53    22    23 ar  
    54    22    76 1   
    55    23    24 ar  
    56    23    77 1   
    57    24    25 ar  
    58    24    78 1   
    59    25    79 1   
    60    26    27 2   
    61    26    28 1   
    62    28    29 1   
    63    28    80 1   
    64    29    30 1   
    65    29    38 1   
    66    29    81 1   
    67    30    31 1   
    68    30    32 1   
    69    30    82 1   
    70    31    83 1   
    71    32    33 1   
    72    32    84 1   
    73    32    85 1   
    74    33    34 ar  
    75    33    38 ar  
    76    34    35 ar  
    77    34    86 1   
    78    35    36 ar  
    79    35    87 1   
    80    36    37 ar  
    81    36    88 1   
    82    37    38 ar  
    83    37    89 1   
    84    39    47 1   
    85    39    90 1   
    86    39    91 1   
    87    40    41 ar  
    88    40    45 ar  
    89    40    96 1   
    90    41    42 ar  
    91    41    92 1   
    92    42    43 ar  
    93    42    46 1   
    94    43    44 ar  
    95    43    48 1   
    96    44    45 ar  
    97    44    93 1   
    98    45    94 1   
    99    46    47 1   
   100    47    48 2   
   101    48    95 1   
@<TRIPOS>SUBSTRUCTURE
     1 L75         1 TEMP              0 ****  ****    0 ROOT
