@<TRIPOS>MOLECULE
L76
   68    71     1     0     0
SMALL
abcg2


@<TRIPOS>ATOM
      1 F7         -12.6450    52.7790    54.9090 f          1 L76      -0.184000
      2 C11        -13.8540    53.2950    55.2630 ca         1 L76       0.163000
      3 C10        -14.7440    52.4950    55.9530 ca         1 L76      -0.152500
      4 C9         -15.9820    53.0250    56.2950 ca         1 L76      -0.066000
      5 C12        -14.1460    54.6000    54.9150 ca         1 L76      -0.152500
      6 C13        -15.3820    55.1170    55.2890 ca         1 L76      -0.066000
      7 C8         -16.3130    54.3400    55.9750 ca         1 L76      -0.090300
      8 C1         -17.6780    54.9220    56.2590 c6         1 L76       0.215800
      9 N1         -18.3230    54.3940    57.4630 n3         1 L76      -0.699600
     10 C5         -17.5430    54.5780    58.6980 c3         1 L76       0.143500
     11 C6         -17.2710    55.9960    59.1110 cc         1 L76       0.185300
     12 C7         -17.9960    56.8290    59.9460 cd         1 L76      -0.172300
     13 C24        -19.2580    56.6510    60.7240 c3         1 L76       0.233100
     14 N5         -19.2100    55.4800    61.5940 n3         1 L76      -0.712600
     15 C26        -18.2470    55.6520    62.6750 c3         1 L76       0.144600
     16 C25        -20.5360    55.1710    62.1130 c3         1 L76       0.144600
     17 N4         -17.2800    57.9730    59.9560 na         1 L76      -0.019200
     18 N3         -16.1870    57.8890    59.1900 nd         1 L76      -0.196800
     19 N2         -16.1770    56.6860    58.6800 nc         1 L76      -0.355000
     20 C4         -19.6710    54.9480    57.6050 c6         1 L76       0.128800
     21 C3         -20.5050    54.6650    56.3770 c6         1 L76       0.153600
     22 O1         -19.8750    55.2130    55.2110 os         1 L76      -0.478000
     23 C2         -18.5770    54.6920    55.0280 c6         1 L76       0.374300
     24 O2         -18.6280    53.3200    54.7220 os         1 L76      -0.461000
     25 C14        -18.8810    53.0350    53.3350 c3         1 L76       0.214600
     26 C21        -19.6130    51.7070    53.2660 c3         1 L76      -0.088100
     27 C15        -17.5680    53.0500    52.5760 ca         1 L76      -0.121300
     28 C20        -17.2740    54.0920    51.6990 ca         1 L76      -0.017500
     29 C19        -16.0550    54.1270    51.0320 ca         1 L76      -0.198800
     30 C23        -15.7220    55.2400    50.0800 c3         1 L76       0.346800
     31 F6         -15.5490    54.7860    48.8140 f          1 L76      -0.109667
     32 F5         -14.5680    55.8640    50.4160 f          1 L76      -0.109667
     33 F4         -16.6770    56.1870    50.0260 f          1 L76      -0.109667
     34 C18        -15.1150    53.1210    51.2190 ca         1 L76      -0.008000
     35 C17        -15.4130    52.0800    52.0870 ca         1 L76      -0.198800
     36 C16        -16.6240    52.0460    52.7690 ca         1 L76      -0.017500
     37 C22        -14.4490    50.9360    52.2350 c3         1 L76       0.346800
     38 F1         -14.7920    49.8950    51.4320 f          1 L76      -0.109667
     39 F2         -13.1890    51.2760    51.9030 f          1 L76      -0.109667
     40 F3         -14.4100    50.4460    53.4900 f          1 L76      -0.109667
     41 H1         -14.4800    51.4760    56.1990 ha         1 L76       0.133500
     42 H2         -16.7010    52.4060    56.8130 ha         1 L76       0.125000
     43 H3         -13.4210    55.1960    54.3770 ha         1 L76       0.133500
     44 H4         -15.6240    56.1420    55.0340 ha         1 L76       0.125000
     45 H5         -17.5690    56.0150    56.3280 h1         1 L76       0.054700
     46 H7         -18.0980    54.0880    59.4980 h1         1 L76       0.080200
     47 H8         -16.5900    54.0630    58.5880 h1         1 L76       0.080200
     48 H9         -19.4590    57.5750    61.2920 h1         1 L76       0.044700
     49 H10        -20.0900    56.5210    60.0310 h1         1 L76       0.044700
     50 H12        -18.2070    54.7420    63.2740 h1         1 L76       0.037200
     51 H13        -17.2530    55.8370    62.2660 h1         1 L76       0.037200
     52 H14        -18.5120    56.4930    63.3370 h1         1 L76       0.037200
     53 H15        -20.4860    54.2700    62.7240 h1         1 L76       0.037200
     54 H16        -20.9450    55.9860    62.7340 h1         1 L76       0.037200
     55 H17        -21.2230    54.9930    61.2840 h1         1 L76       0.037200
     56 H18        -17.4810    58.8250    60.4620 hn         1 L76       0.375000
     57 H19        -19.6400    56.0380    57.7620 h1         1 L76       0.043200
     58 H20        -20.1430    54.4960    58.4800 h1         1 L76       0.043200
     59 H21        -21.4770    55.1510    56.4550 h1         1 L76       0.058700
     60 H22        -20.6530    53.5900    56.2470 h1         1 L76       0.058700
     61 H23        -18.1550    55.2550    54.1930 h2         1 L76       0.066700
     62 H24        -19.5260    53.8170    52.9270 h1         1 L76       0.053700
     63 H25        -20.5690    51.7880    53.7840 hc         1 L76       0.049367
     64 H26        -19.7970    51.4320    52.2270 hc         1 L76       0.049367
     65 H27        -19.0300    50.9130    53.7360 hc         1 L76       0.049367
     66 H28        -18.0010    54.8760    51.5400 ha         1 L76       0.138500
     67 H29        -14.1690    53.1480    50.6960 ha         1 L76       0.147000
     68 H30        -16.8280    51.2360    53.4540 ha         1 L76       0.138500
@<TRIPOS>BOND
     1     1     2 1   
     2     2     3 ar  
     3     2     5 ar  
     4     3     4 ar  
     5     3    41 1   
     6     4     7 ar  
     7     4    42 1   
     8     5     6 ar  
     9     5    43 1   
    10     6     7 ar  
    11     6    44 1   
    12     7     8 1   
    13     8     9 1   
    14     8    23 1   
    15     8    45 1   
    16     9    10 1   
    17     9    20 1   
    18    10    11 1   
    19    10    46 1   
    20    10    47 1   
    21    11    12 2   
    22    11    19 1   
    23    12    13 1   
    24    12    17 1   
    25    13    14 1   
    26    13    48 1   
    27    13    49 1   
    28    14    15 1   
    29    14    16 1   
    30    15    50 1   
    31    15    51 1   
    32    15    52 1   
    33    16    53 1   
    34    16    54 1   
    35    16    55 1   
    36    17    18 1   
    37    17    56 1   
    38    18    19 2   
    39    20    21 1   
    40    20    57 1   
    41    20    58 1   
    42    21    22 1   
    43    21    59 1   
    44    21    60 1   
    45    22    23 1   
    46    23    24 1   
    47    23    61 1   
    48    24    25 1   
    49    25    26 1   
    50    25    27 1   
    51    25    62 1   
    52    26    63 1   
    53    26    64 1   
    54    26    65 1   
    55    27    28 ar  
    56    27    36 ar  
    57    28    29 ar  
    58    28    66 1   
    59    29    30 1   
    60    29    34 ar  
    61    30    31 1   
    62    30    32 1   
    63    30    33 1   
    64    34    35 ar  
    65    34    67 1   
    66    35    36 ar  
    67    35    37 1   
    68    36    68 1   
    69    37    38 1   
    70    37    39 1   
    71    37    40 1   
@<TRIPOS>SUBSTRUCTURE
     1 L76         1 TEMP              0 ****  ****    0 ROOT
