@<TRIPOS>MOLECULE
L76
   68    71     1     0     0
SMALL
No Charge or Current Charge


@<TRIPOS>ATOM
      1 F7         -12.6700    51.6010    56.0910 f          1 L76      -0.184000
      2 C11        -13.8090    52.3240    56.1540 ca         1 L76       0.163000
      3 C10        -15.0300    51.6810    56.4070 ca         1 L76      -0.152500
      4 C9         -16.2160    52.4330    56.4720 ca         1 L76      -0.066000
      5 C12        -13.7660    53.7120    55.9620 ca         1 L76      -0.152500
      6 C13        -14.9520    54.4660    56.0240 ca         1 L76      -0.066000
      7 C8         -16.1850    53.8310    56.2810 ca         1 L76      -0.090300
      8 C1         -17.4820    54.6600    56.3280 c6         1 L76       0.215800
      9 N1         -18.3510    54.3560    57.5230 n3         1 L76      -0.699600
     10 C5         -17.6590    54.4920    58.8450 c3         1 L76       0.143500
     11 C6         -17.1890    55.8900    59.2140 cc         1 L76       0.185300
     12 C7         -17.8290    56.8240    59.9740 cd         1 L76      -0.172300
     13 C24        -19.1640    56.7850    60.6720 c3         1 L76       0.233100
     14 N5         -19.2550    55.7140    61.6900 n3         1 L76      -0.712600
     15 C26        -18.2740    55.8640    62.7910 c3         1 L76       0.144600
     16 C25        -20.6340    55.5260    62.1900 c3         1 L76       0.144600
     17 N4         -16.9480    57.8860    59.9970 na         1 L76      -0.019200
     18 N3         -15.8190    57.5820    59.2790 nd         1 L76      -0.196800
     19 N2         -15.9700    56.3690    58.8120 nc         1 L76      -0.355000
     20 C4         -19.6340    55.1190    57.4530 c6         1 L76       0.128800
     21 C3         -20.3560    54.9230    56.0890 c6         1 L76       0.153600
     22 O1         -19.4850    55.2990    54.9930 os         1 L76      -0.478000
     23 C2         -18.2550    54.5370    54.9560 c6         1 L76       0.374300
     24 O2         -18.5650    53.1670    54.6160 os         1 L76      -0.461000
     25 C14        -18.9240    52.9100    53.2500 c3         1 L76       0.214600
     26 C21        -19.4150    51.4530    53.1810 c3         1 L76      -0.088100
     27 C15        -17.7010    53.1520    52.3650 ca         1 L76      -0.121300
     28 C20        -17.8010    53.9890    51.2390 ca         1 L76      -0.017500
     29 C19        -16.6720    54.2450    50.4330 ca         1 L76      -0.198800
     30 C23        -16.7860    55.1540    49.2050 c3         1 L76       0.346800
     31 F6         -17.0970    54.4450    48.0970 f          1 L76      -0.109667
     32 F5         -15.6320    55.8110    48.9420 f          1 L76      -0.109667
     33 F4         -17.7420    56.1010    49.3500 f          1 L76      -0.109667
     34 C18        -15.4410    53.6370    50.7580 ca         1 L76      -0.008000
     35 C17        -15.3280    52.7910    51.8800 ca         1 L76      -0.198800
     36 C16        -16.4630    52.5600    52.6840 ca         1 L76      -0.017500
     37 C22        -13.9760    52.1560    52.2220 c3         1 L76       0.346800
     38 F1         -13.3400    51.7020    51.1180 f          1 L76      -0.109667
     39 F2         -13.1510    53.0480    52.8130 f          1 L76      -0.109667
     40 F3         -14.0880    51.1020    53.0620 f          1 L76      -0.109667
     41 H1         -15.0560    50.6040    56.5520 ha         1 L76       0.133500
     42 H2         -17.1620    51.9330    56.6660 ha         1 L76       0.125000
     43 H3         -12.8170    54.2020    55.7640 ha         1 L76       0.133500
     44 H4         -14.9110    55.5430    55.8730 ha         1 L76       0.125000
     45 H5         -17.1800    55.7160    56.3920 h1         1 L76       0.054700
     46 H7         -18.3290    54.1450    59.6420 h1         1 L76       0.080200
     47 H8         -16.7870    53.8260    58.8840 h1         1 L76       0.080200
     48 H9         -19.3570    57.7630    61.1350 h1         1 L76       0.044700
     49 H10        -19.9390    56.6380    59.9070 h1         1 L76       0.044700
     50 H12        -18.3490    55.0240    63.4940 h1         1 L76       0.037200
     51 H13        -17.2460    55.8820    62.4050 h1         1 L76       0.037200
     52 H14        -18.4490    56.7940    63.3480 h1         1 L76       0.037200
     53 H15        -20.6850    54.6730    62.8800 h1         1 L76       0.037200
     54 H16        -20.9850    56.4200    62.7220 h1         1 L76       0.037200
     55 H17        -21.3250    55.3270    61.3590 h1         1 L76       0.037200
     56 H18        -17.0580    58.7820    60.4630 hn         1 L76       0.375000
     57 H19        -19.4490    56.1940    57.5910 h1         1 L76       0.043200
     58 H20        -20.3110    54.8010    58.2590 h1         1 L76       0.043200
     59 H21        -21.2620    55.5440    56.0550 h1         1 L76       0.058700
     60 H22        -20.6610    53.8730    55.9730 h1         1 L76       0.058700
     61 H23        -17.6010    54.9590    54.1790 h2         1 L76       0.066700
     62 H24        -19.7460    53.5690    52.9390 h1         1 L76       0.053700
     63 H25        -20.3040    51.3190    53.8080 hc         1 L76       0.049367
     64 H26        -19.6800    51.1900    52.1500 hc         1 L76       0.049367
     65 H27        -18.6400    50.7580    53.5250 hc         1 L76       0.049367
     66 H28        -18.7600    54.4430    50.9950 ha         1 L76       0.138500
     67 H29        -14.5660    53.8210    50.1370 ha         1 L76       0.147000
     68 H30        -16.3900    51.9250    53.5650 ha         1 L76       0.138500
@<TRIPOS>BOND
     1     1     2 1   
     2     2     3 ar  
     3     2     5 ar  
     4     3     4 ar  
     5     3    41 1   
     6     4     7 ar  
     7     4    42 1   
     8     5     6 ar  
     9     5    43 1   
    10     6     7 ar  
    11     6    44 1   
    12     7     8 1   
    13     8     9 1   
    14     8    23 1   
    15     8    45 1   
    16     9    10 1   
    17     9    20 1   
    18    10    11 1   
    19    10    46 1   
    20    10    47 1   
    21    11    12 2   
    22    11    19 1   
    23    12    13 1   
    24    12    17 1   
    25    13    14 1   
    26    13    48 1   
    27    13    49 1   
    28    14    15 1   
    29    14    16 1   
    30    15    50 1   
    31    15    51 1   
    32    15    52 1   
    33    16    53 1   
    34    16    54 1   
    35    16    55 1   
    36    17    18 1   
    37    17    56 1   
    38    18    19 2   
    39    20    21 1   
    40    20    57 1   
    41    20    58 1   
    42    21    22 1   
    43    21    59 1   
    44    21    60 1   
    45    22    23 1   
    46    23    24 1   
    47    23    61 1   
    48    24    25 1   
    49    25    26 1   
    50    25    27 1   
    51    25    62 1   
    52    26    63 1   
    53    26    64 1   
    54    26    65 1   
    55    27    28 ar  
    56    27    36 ar  
    57    28    29 ar  
    58    28    66 1   
    59    29    30 1   
    60    29    34 ar  
    61    30    31 1   
    62    30    32 1   
    63    30    33 1   
    64    34    35 ar  
    65    34    67 1   
    66    35    36 ar  
    67    35    37 1   
    68    36    68 1   
    69    37    38 1   
    70    37    39 1   
    71    37    40 1   
@<TRIPOS>SUBSTRUCTURE
     1 L76         1 TEMP              0 ****  ****    0 ROOT
