@<TRIPOS>MOLECULE
L77
   48    51     1     0     0
SMALL
No Charge or Current Charge


@<TRIPOS>ATOM
      1 N1           2.4360     0.4680    -0.1090 ns         1 L77      -0.138000
      2 C1          -2.9360     3.3120     0.5050 c5         1 L77       0.205800
      3 O1           3.6490     0.3520    -2.0590 o          1 L77      -0.547100
      4 N2          -1.9580     2.3670     1.1100 nh         1 L77      -0.736300
      5 C2          -2.2150     3.7430    -0.8380 c5         1 L77      -0.028100
      6 O2          -1.4920     1.0090     3.2390 o          1 L77      -0.527500
      7 C3           6.3390    -2.6320     1.0400 ca         1 L77      -0.058000
      8 O3          -3.8980     1.4650     2.4960 o          1 L77      -0.527500
      9 C4          -1.5150    -2.4270     0.4580 ca         1 L77      -0.134000
     10 C5           6.7750    -1.6030     0.1930 ca         1 L77      -0.154000
     11 C6           4.9650    -2.8090     1.2590 ca         1 L77      -0.124000
     12 C10          0.0920     2.9280    -1.7610 ca         1 L77      -0.050000
     13 C11          0.3050     1.3700     0.5810 ca         1 L77      -0.188000
     14 C12         -3.3200    -0.3290    -0.0190 ca         1 L77       0.029000
     15 C13          3.4990     0.0320    -0.8860 c          1 L77       0.635700
     16 C14          5.8440    -0.7550    -0.4250 ca         1 L77       0.224000
     17 C15          4.0250    -1.9620     0.6460 ca         1 L77       0.167000
     18 C16          1.3330     1.3200    -0.3820 ca         1 L77       0.001000
     19 C17         -0.9230     2.9430    -0.7930 ca         1 L77      -0.139300
     20 C18         -3.2850    -1.4300    -0.9000 ca         1 L77      -0.217300
     21 C19         -0.8200     2.1750     0.3450 ca         1 L77       0.291000
     22 C20         -2.4580    -0.2770     1.0940 ca         1 L77      -0.310500
     23 C21          4.4570    -0.9100    -0.2040 ca         1 L77      -0.204600
     24 C7          -2.3690    -2.4770    -0.6570 ca         1 L77      -0.008000
     25 C8           1.2200     2.1100    -1.5540 ca         1 L77      -0.136000
     26 C9          -1.5570    -1.3320     1.3350 ca         1 L77       0.020000
     27 F2          -3.7130    -0.7170    -3.1310 f          1 L77      -0.110333
     28 F3          -4.4000    -2.7100    -2.6010 f          1 L77      -0.110333
     29 F4          -5.4390    -0.9680    -1.8340 f          1 L77      -0.110333
     30 S1          -2.4980     1.1570     2.1820 sy         1 L77       1.171600
     31 Cl1          2.3210    -2.3330     0.9250 cl         1 L77      -0.188000
     32 H1           2.4370     0.0920     0.8300 hn         1 L77       0.161000
     33 H2          -3.9040     2.8380     0.2900 h1         1 L77       0.063700
     34 H3          -3.1130     4.1780     1.1570 h1         1 L77       0.063700
     35 H4          -2.8220     3.4940    -1.7150 hc         1 L77       0.065700
     36 H5          -2.0290     4.8220    -0.8630 hc         1 L77       0.065700
     37 H6           7.0600    -3.2920     1.5190 ha         1 L77       0.128000
     38 H7          -0.8140    -3.2380     0.6390 ha         1 L77       0.128000
     39 H8           7.8370    -1.4570     0.0170 ha         1 L77       0.144000
     40 H9           4.6230    -3.6170     1.9020 ha         1 L77       0.140000
     41 H10          0.0070     3.5360    -2.6590 ha         1 L77       0.122000
     42 H11          0.3880     0.7860     1.4910 ha         1 L77       0.142000
     43 H12         -4.0110     0.4920    -0.2060 ha         1 L77       0.151000
     44 H13         -2.3100    -3.3310    -1.3280 ha         1 L77       0.133000
     45 H14          1.9990     2.1130    -2.3100 ha         1 L77       0.149000
     46 H15         -0.8850    -1.3110     2.1910 ha         1 L77       0.139000
     47 F1           6.3130     0.2440    -1.2060 f          1 L77      -0.158000
     48 C22         -4.2110    -1.4610    -2.1180 c3         1 L77       0.358300
@<TRIPOS>BOND
     1     1    15 1   
     2     1    18 1   
     3     1    32 1   
     4     2     4 1   
     5     2     5 1   
     6     2    33 1   
     7     2    34 1   
     8     3    15 2   
     9     4    21 1   
    10     4    30 1   
    11     5    19 1   
    12     5    35 1   
    13     5    36 1   
    14     6    30 2   
    15     7    10 ar  
    16     7    11 ar  
    17     7    37 1   
    18     8    30 2   
    19     9    24 ar  
    20     9    26 ar  
    21     9    38 1   
    22    10    16 ar  
    23    10    39 1   
    24    11    17 ar  
    25    11    40 1   
    26    12    19 ar  
    27    12    25 ar  
    28    12    41 1   
    29    13    18 ar  
    30    13    21 ar  
    31    13    42 1   
    32    14    20 ar  
    33    14    22 ar  
    34    14    43 1   
    35    15    23 1   
    36    16    23 ar  
    37    16    47 1   
    38    17    23 ar  
    39    17    31 1   
    40    18    25 ar  
    41    19    21 ar  
    42    20    24 ar  
    43    20    48 1   
    44    22    26 ar  
    45    22    30 1   
    46    24    44 1   
    47    25    45 1   
    48    26    46 1   
    49    27    48 1   
    50    28    48 1   
    51    29    48 1   
@<TRIPOS>SUBSTRUCTURE
     1 L77         1 TEMP              0 ****  ****    0 ROOT
