@<TRIPOS>MOLECULE
L77
   48    51     1     0     0
SMALL
abcg2


@<TRIPOS>ATOM
      1 N1           2.7860     0.7260     0.0410 ns         1 L77      -0.138000
      2 C1          -2.7550     2.9670     0.0380 c5         1 L77       0.205800
      3 O1           3.8780     0.4280    -1.9420 o          1 L77      -0.547100
      4 N2          -1.7730     2.2770     0.9100 nh         1 L77      -0.736300
      5 C2          -1.8820     3.7460    -0.9490 c5         1 L77      -0.028100
      6 O2          -1.2760     0.7800     2.8630 o          1 L77      -0.527500
      7 C3           6.3640    -2.5920     1.1630 ca         1 L77      -0.058000
      8 O3          -3.6260     1.5420     2.3860 o          1 L77      -0.527500
      9 C4          -1.7490    -2.3240    -0.1410 ca         1 L77      -0.134000
     10 C5           6.8210    -1.3270     0.8240 ca         1 L77      -0.154000
     11 C6           5.0550    -2.9730     0.9060 ca         1 L77      -0.124000
     12 C10          0.5120     3.0600    -1.7400 ca         1 L77      -0.050000
     13 C11          0.5840     1.4510     0.5390 ca         1 L77      -0.188000
     14 C12         -3.7920    -0.4640     0.2150 ca         1 L77       0.029000
     15 C13          3.7290     0.1870    -0.7620 c          1 L77       0.635700
     16 C14          5.9390    -0.4560     0.2200 ca         1 L77       0.224000
     17 C15          4.1980    -2.0650     0.3050 ca         1 L77       0.167000
     18 C16          1.6810     1.5070    -0.3270 ca         1 L77       0.001000
     19 C17         -0.5840     2.9990    -0.9060 ca         1 L77      -0.139300
     20 C18         -3.9660    -1.5390    -0.6420 ca         1 L77      -0.217300
     21 C19         -0.5430     2.1840     0.2220 ca         1 L77       0.291000
     22 C20         -2.5800    -0.3300     0.8820 ca         1 L77      -0.310500
     23 C21          4.6200    -0.7880    -0.0470 ca         1 L77      -0.204600
     24 C7          -2.9440    -2.4650    -0.8260 ca         1 L77      -0.008000
     25 C8           1.6510     2.3090    -1.4640 ca         1 L77      -0.136000
     26 C9          -1.5590    -1.2560     0.7230 ca         1 L77       0.020000
     27 F2          -5.0690    -1.5490    -2.7110 f          1 L77      -0.110333
     28 F3          -5.7400    -2.9570    -1.2340 f          1 L77      -0.110333
     29 F4          -6.1960    -0.8650    -1.0100 f          1 L77      -0.110333
     30 S1          -2.3320     1.0870     1.9180 sy         1 L77       1.171600
     31 CL1          2.5670    -2.5360    -0.0320 cl         1 L77      -0.188000
     32 H1           2.7890     0.4110     1.0000 hn         1 L77       0.161000
     33 H2          -3.3680     2.2380    -0.5010 h1         1 L77       0.063700
     34 H3          -3.4040     3.6050     0.6300 h1         1 L77       0.063700
     35 H4          -2.3330     3.7790    -1.9390 hc         1 L77       0.065700
     36 H5          -1.7390     4.7770    -0.6160 hc         1 L77       0.065700
     37 H6           7.0380    -3.2940     1.6330 ha         1 L77       0.128000
     38 H7          -0.9660    -3.0560    -0.2730 ha         1 L77       0.128000
     39 H8           7.8390    -1.0240     1.0240 ha         1 L77       0.144000
     40 H9           4.7080    -3.9620     1.1690 ha         1 L77       0.140000
     41 H10          0.4950     3.6960    -2.6160 ha         1 L77       0.122000
     42 H11          0.6420     0.8440     1.4320 ha         1 L77       0.142000
     43 H12         -4.5870     0.2510     0.3790 ha         1 L77       0.151000
     44 H13         -3.0740    -3.3070    -1.4930 ha         1 L77       0.133000
     45 H14          2.4990     2.3700    -2.1250 ha         1 L77       0.149000
     46 H15         -0.6320    -1.1710     1.2720 ha         1 L77       0.139000
     47 F1           6.3520     0.7710    -0.1150 f          1 L77      -0.158000
     48 C22         -5.2490    -1.7220    -1.3950 c3         1 L77       0.358300
@<TRIPOS>BOND
     1     1    15 1   
     2     1    18 1   
     3     1    32 1   
     4     2     4 1   
     5     2     5 1   
     6     2    33 1   
     7     2    34 1   
     8     3    15 2   
     9     4    21 1   
    10     4    30 1   
    11     5    19 1   
    12     5    35 1   
    13     5    36 1   
    14     6    30 2   
    15     7    10 ar  
    16     7    11 ar  
    17     7    37 1   
    18     8    30 2   
    19     9    24 ar  
    20     9    26 ar  
    21     9    38 1   
    22    10    16 ar  
    23    10    39 1   
    24    11    17 ar  
    25    11    40 1   
    26    12    19 ar  
    27    12    25 ar  
    28    12    41 1   
    29    13    18 ar  
    30    13    21 ar  
    31    13    42 1   
    32    14    20 ar  
    33    14    22 ar  
    34    14    43 1   
    35    15    23 1   
    36    16    23 ar  
    37    16    47 1   
    38    17    23 ar  
    39    17    31 1   
    40    18    25 ar  
    41    19    21 ar  
    42    20    24 ar  
    43    20    48 1   
    44    22    26 ar  
    45    22    30 1   
    46    24    44 1   
    47    25    45 1   
    48    26    46 1   
    49    27    48 1   
    50    28    48 1   
    51    29    48 1   
@<TRIPOS>SUBSTRUCTURE
     1 L77         1 TEMP              0 ****  ****    0 ROOT
