@<TRIPOS>MOLECULE
L79
   57    60     1     0     0
SMALL
bcc


@<TRIPOS>ATOM
      1 C            2.0590     0.2220     0.8980 c5         1 L79      -0.102400
      2 C1           3.3990     0.7330     1.4380 c5         1 L79       0.185300
      3 O            3.7160     1.8920     0.6850 os         1 L79      -0.404600
      4 C2           2.6610     2.2320    -0.2060 c5         1 L79       0.178300
      5 C3           1.4290     1.4970     0.3270 c5         1 L79      -0.059500
      6 C4           4.4740    -0.3000     1.3770 c2         1 L79      -0.249200
      7 C5           5.5560    -0.2700     0.6040 ce         1 L79      -0.174200
      8 C6           6.5970    -1.3670     0.5940 c          1 L79       0.906800
      9 O1           7.5730    -1.1740    -0.1630 o          1 L79      -0.836800
     10 O7           6.4110    -2.3600     1.3260 o          1 L79      -0.836800
     11 C8           0.3610     1.1850    -0.6860 ce         1 L79      -0.060400
     12 C9           0.6940     1.1300    -1.9860 cf         1 L79      -0.113000
     13 C10          2.0560     1.3720    -2.4380 cf         1 L79      -0.161000
     14 C11          2.9930     1.8500    -1.6160 c2         1 L79      -0.134200
     15 C12         -0.9870     0.8420    -0.2060 ca         1 L79      -0.029800
     16 C13         -1.7540    -0.1210    -0.8570 ca         1 L79      -0.121000
     17 C14         -3.0470    -0.4650    -0.4630 ca         1 L79      -0.061300
     18 C15         -3.7790    -1.5420    -1.2570 c6         1 L79       0.001300
     19 C16         -5.0410    -1.9970    -0.5160 c6         1 L79      -0.066400
     20 C17         -2.8910    -2.7750    -1.4630 c3         1 L79      -0.081600
     21 C18         -4.1600    -0.9720    -2.6310 c3         1 L79      -0.081600
     22 C19         -3.6220     0.2040     0.6260 ca         1 L79      -0.066300
     23 C20         -5.0380    -0.0630     1.1150 c6         1 L79       0.003300
     24 C21         -5.7810     1.2510     1.3850 c3         1 L79      -0.080100
     25 C22         -5.8270    -0.8340     0.0530 c6         1 L79      -0.065400
     26 C23         -4.9760    -0.8730     2.4190 c3         1 L79      -0.080100
     27 C24         -2.8390     1.1430     1.3040 ca         1 L79      -0.133000
     28 C25         -1.5530     1.4580     0.9120 ca         1 L79      -0.120000
     29 H1A          2.2130    -0.5130     0.1030 hc         1 L79       0.060700
     30 H2A          1.4510    -0.2420     1.6730 hc         1 L79       0.060700
     31 H1           3.2660     1.0270     2.4890 h1         1 L79       0.031700
     32 H2           2.5310     3.3200    -0.1550 h1         1 L79       0.058700
     33 H3           1.0200     2.0840     1.1530 hc         1 L79       0.054700
     34 H4           4.3220    -1.1470     2.0400 ha         1 L79       0.136000
     35 H5           5.7260     0.5740    -0.0560 ha         1 L79       0.103000
     36 H9          -0.0510     0.8820    -2.7330 ha         1 L79       0.118000
     37 H10          2.2930     1.1570    -3.4730 ha         1 L79       0.124000
     38 H11          4.0020     2.0380    -1.9660 ha         1 L79       0.147000
     39 H13         -1.3130    -0.6450    -1.6950 ha         1 L79       0.132000
     40 H161        -4.7630    -2.6850     0.2880 hc         1 L79       0.040200
     41 H162        -5.6630    -2.5770    -1.2050 hc         1 L79       0.040200
     42 H171        -3.4680    -3.5640    -1.9510 hc         1 L79       0.034533
     43 H172        -2.0250    -2.5750    -2.0940 hc         1 L79       0.034533
     44 H173        -2.5300    -3.1660    -0.5100 hc         1 L79       0.034533
     45 H181        -4.8410    -0.1240    -2.5450 hc         1 L79       0.034533
     46 H182        -3.2790    -0.6300    -3.1770 hc         1 L79       0.034533
     47 H183        -4.6520    -1.7370    -3.2360 hc         1 L79       0.034533
     48 H211        -5.3570     1.8120     2.2180 hc         1 L79       0.032867
     49 H212        -5.7690     1.8960     0.5040 hc         1 L79       0.032867
     50 H213        -6.8240     1.0440     1.6330 hc         1 L79       0.032867
     51 H221        -6.7640    -1.1850     0.4940 hc         1 L79       0.037700
     52 H222        -6.1100    -0.1520    -0.7550 hc         1 L79       0.037700
     53 H231        -5.9830    -1.0710     2.7930 hc         1 L79       0.032867
     54 H232        -4.4770    -1.8330     2.2830 hc         1 L79       0.032867
     55 H233        -4.4340    -0.3300     3.1950 hc         1 L79       0.032867
     56 H24         -3.2490     1.6560     2.1650 ha         1 L79       0.122000
     57 H25         -1.0070     2.2090     1.4680 ha         1 L79       0.132000
@<TRIPOS>BOND
     1     1     2 1   
     2     1     5 1   
     3     1    29 1   
     4     1    30 1   
     5     2     3 1   
     6     2     6 1   
     7     2    31 1   
     8     3     4 1   
     9     4     5 1   
    10     4    14 1   
    11     4    32 1   
    12     5    11 1   
    13     5    33 1   
    14     6     7 2   
    15     6    34 1   
    16     7     8 1   
    17     7    35 1   
    18     8     9 1   
    19     8    10 1   
    20    11    12 2   
    21    11    15 1   
    22    12    13 1   
    23    12    36 1   
    24    13    14 2   
    25    13    37 1   
    26    14    38 1   
    27    15    16 ar  
    28    15    28 ar  
    29    16    17 ar  
    30    16    39 1   
    31    17    18 1   
    32    17    22 ar  
    33    18    19 1   
    34    18    20 1   
    35    18    21 1   
    36    19    25 1   
    37    19    40 1   
    38    19    41 1   
    39    20    42 1   
    40    20    43 1   
    41    20    44 1   
    42    21    45 1   
    43    21    46 1   
    44    21    47 1   
    45    22    23 1   
    46    22    27 ar  
    47    23    24 1   
    48    23    25 1   
    49    23    26 1   
    50    24    48 1   
    51    24    49 1   
    52    24    50 1   
    53    25    51 1   
    54    25    52 1   
    55    26    53 1   
    56    26    54 1   
    57    26    55 1   
    58    27    28 ar  
    59    27    56 1   
    60    28    57 1   
@<TRIPOS>SUBSTRUCTURE
     1 L79         1 TEMP              0 ****  ****    0 ROOT
