@<TRIPOS>MOLECULE
L79
   57    60     1     0     0
SMALL
No Charge or Current Charge


@<TRIPOS>ATOM
      1 C            2.1360     0.1380     0.7780 c5         1 L79      -0.102400
      2 C1           3.4090     0.6110     1.5280 c5         1 L79       0.208500
      3 O            3.8460     1.8080     0.8390 os         1 L79      -0.451000
      4 C2           2.7300     2.3740     0.1070 c5         1 L79       0.201500
      5 C3           1.4850     1.5260     0.5610 c5         1 L79      -0.059500
      6 C4           4.5200    -0.4370     1.4670 c2         1 L79      -0.299200
      7 C5           5.0970    -0.6850     0.2570 ce         1 L79      -0.224200
      8 C6           6.1940    -1.6720     0.0040 c          1 L79       0.696200
      9 O1           6.6070    -1.7780    -1.1400 o          1 L79      -0.731500
     10 O7           6.6300    -2.3280     0.9390 o          1 L79      -0.731500
     11 C8           0.3950     1.3500    -0.5320 ce         1 L79      -0.060400
     12 C9           0.8180     1.4400    -1.8290 cf         1 L79      -0.163000
     13 C10          2.1640     1.7630    -2.2480 cf         1 L79      -0.211000
     14 C11          3.0810     2.1880    -1.3620 c2         1 L79      -0.184200
     15 C12         -0.9950     0.9890    -0.1330 ca         1 L79      -0.029800
     16 C13         -1.6590    -0.0720    -0.7700 ca         1 L79      -0.103000
     17 C14         -2.9740    -0.4510    -0.4110 ca         1 L79      -0.061300
     18 C15         -3.6350    -1.6470    -1.1490 c6         1 L79       0.001300
     19 C16         -4.9230    -2.1330    -0.4250 c6         1 L79      -0.066400
     20 C17         -2.6650    -2.8700    -1.2460 c3         1 L79      -0.081600
     21 C18         -3.9620    -1.2070    -2.6100 c3         1 L79      -0.081600
     22 C19         -3.6590     0.3010     0.5890 ca         1 L79      -0.066300
     23 C20         -5.1170    -0.0230     1.0150 c6         1 L79       0.003300
     24 C21         -5.9800     1.2750     1.1370 c3         1 L79      -0.080100
     25 C22         -5.8230    -0.9580    -0.0070 c6         1 L79      -0.065400
     26 C23         -5.0830    -0.6830     2.4300 c3         1 L79      -0.080100
     27 C24         -2.9700     1.3540     1.2370 ca         1 L79      -0.115000
     28 C25         -1.6580     1.6940     0.8820 ca         1 L79      -0.102000
     29 H1A          2.3680    -0.3720    -0.1640 hc         1 L79       0.060700
     30 H2A          1.5150    -0.5340     1.3810 hc         1 L79       0.060700
     31 H1           3.1680     0.8830     2.5650 h1         1 L79       0.031700
     32 H2           2.6180     3.4370     0.3620 h1         1 L79       0.058700
     33 H3           1.0730     1.9220     1.4960 hc         1 L79       0.054700
     34 H4           4.8360    -0.9680     2.3660 ha         1 L79       0.186000
     35 H5           4.7740    -0.1480    -0.6320 ha         1 L79       0.153000
     36 H9           0.0890     1.2640    -2.6220 ha         1 L79       0.168000
     37 H10          2.4180     1.6630    -3.3070 ha         1 L79       0.174000
     38 H11          4.0860     2.4260    -1.7100 ha         1 L79       0.197000
     39 H13         -1.1360    -0.6090    -1.5530 ha         1 L79       0.114000
     40 H161        -4.6580    -2.7240     0.4620 hc         1 L79       0.040200
     41 H162        -5.4880    -2.8140    -1.0750 hc         1 L79       0.040200
     42 H171        -3.1740    -3.7480    -1.6620 hc         1 L79       0.034533
     43 H172        -1.8000    -2.6770    -1.8910 hc         1 L79       0.034533
     44 H173        -2.2830    -3.1500    -0.2570 hc         1 L79       0.034533
     45 H181        -4.6040    -0.3180    -2.6320 hc         1 L79       0.034533
     46 H182        -3.0530    -0.9560    -3.1690 hc         1 L79       0.034533
     47 H183        -4.4770    -2.0010    -3.1650 hc         1 L79       0.034533
     48 H211        -5.6540     1.9260     1.9560 hc         1 L79       0.032867
     49 H212        -5.9410     1.8630     0.2120 hc         1 L79       0.032867
     50 H213        -7.0330     1.0350     1.3290 hc         1 L79       0.032867
     51 H221        -6.7580    -1.3460     0.4190 hc         1 L79       0.037700
     52 H222        -6.1190    -0.3880    -0.8980 hc         1 L79       0.037700
     53 H231        -6.0860    -0.9780     2.7610 hc         1 L79       0.032867
     54 H232        -4.4520    -1.5780     2.4450 hc         1 L79       0.032867
     55 H233        -4.6800     0.0040     3.1840 hc         1 L79       0.032867
     56 H24         -3.4470     1.9220     2.0300 ha         1 L79       0.104000
     57 H25         -1.1650     2.5200     1.3880 ha         1 L79       0.114000
@<TRIPOS>BOND
     1     1     2 1   
     2     1     5 1   
     3     1    29 1   
     4     1    30 1   
     5     2     3 1   
     6     2     6 1   
     7     2    31 1   
     8     3     4 1   
     9     4     5 1   
    10     4    14 1   
    11     4    32 1   
    12     5    11 1   
    13     5    33 1   
    14     6     7 2   
    15     6    34 1   
    16     7     8 1   
    17     7    35 1   
    18     8     9 1   
    19     8    10 1   
    20    11    12 2   
    21    11    15 1   
    22    12    13 1   
    23    12    36 1   
    24    13    14 2   
    25    13    37 1   
    26    14    38 1   
    27    15    16 ar  
    28    15    28 ar  
    29    16    17 ar  
    30    16    39 1   
    31    17    18 1   
    32    17    22 ar  
    33    18    19 1   
    34    18    20 1   
    35    18    21 1   
    36    19    25 1   
    37    19    40 1   
    38    19    41 1   
    39    20    42 1   
    40    20    43 1   
    41    20    44 1   
    42    21    45 1   
    43    21    46 1   
    44    21    47 1   
    45    22    23 1   
    46    22    27 ar  
    47    23    24 1   
    48    23    25 1   
    49    23    26 1   
    50    24    48 1   
    51    24    49 1   
    52    24    50 1   
    53    25    51 1   
    54    25    52 1   
    55    26    53 1   
    56    26    54 1   
    57    26    55 1   
    58    27    28 ar  
    59    27    56 1   
    60    28    57 1   
@<TRIPOS>SUBSTRUCTURE
     1 L79         1 TEMP              0 ****  ****    0 ROOT
