@<TRIPOS>MOLECULE
L7A
   35    37     1     0     0
SMALL
No Charge or Current Charge


@<TRIPOS>ATOM
      1 C1          34.2280    50.8600    14.7370 ca         1 L7A      -0.152600
      2 N1          43.4890    52.0770    13.1370 nb         1 L7A      -0.662000
      3 O1          36.0320    48.7890    10.7870 o          1 L7A      -0.582000
      4 C2          33.8240    51.5520    15.9030 ca         1 L7A      -0.068000
      5 N2          35.9910    50.2660    13.1190 ns         1 L7A      -0.398100
      6 O2          36.4910    51.6180    14.9050 o          1 L7A      -0.594100
      7 C3          32.4970    51.4860    16.3610 ca         1 L7A      -0.119000
      8 N3          38.2460    49.1410    10.4960 ns         1 L7A      -0.346100
      9 C4          31.5480    50.7260    15.6610 ca         1 L7A      -0.085000
     10 C5          31.9290    50.0320    14.5030 ca         1 L7A      -0.119000
     11 C6          33.2560    50.0940    14.0400 ca         1 L7A      -0.068000
     12 C7          35.6730    50.9590    14.2780 c          1 L7A       0.619700
     13 C8          39.4710    49.6780    10.8610 cc         1 L7A      -0.052400
     14 C9          39.6150    50.4640    11.9990 cd         1 L7A      -0.100200
     15 C10         38.4180    50.6690    12.8030 cd         1 L7A      -0.136000
     16 C11         37.2000    50.1200    12.4140 cc         1 L7A      -0.051600
     17 C12         37.0750    49.2970    11.1800 c          1 L7A       0.532200
     18 C13         42.3560    52.4700    13.7580 ca         1 L7A       0.335400
     19 C14         43.3700    51.1660    12.1490 ca         1 L7A       0.335400
     20 C15         42.1380    50.6210    11.7500 ca         1 L7A      -0.160000
     21 C16         40.9430    51.0180    12.3920 ca         1 L7A       0.012200
     22 C17         41.0840    51.9750    13.4240 ca         1 L7A      -0.160000
     23 H2          34.5410    52.1490    16.4640 ha         1 L7A       0.126500
     24 H3          32.2050    52.0250    17.2590 ha         1 L7A       0.119500
     25 H4          30.5210    50.6740    16.0160 ha         1 L7A       0.117000
     26 H5          31.1940    49.4410    13.9600 ha         1 L7A       0.119500
     27 H6          33.5030    49.5390    13.1400 ha         1 L7A       0.126500
     28 H8          40.2510    49.4210    10.1520 h4         1 L7A       0.209000
     29 H10         38.4820    51.2390    13.7170 ha         1 L7A       0.228000
     30 H13         42.4700    53.2110    14.5480 h4         1 L7A       0.020600
     31 H14         44.2940    50.8580    11.6610 h4         1 L7A       0.020600
     32 H15         42.1480    49.8840    10.9550 ha         1 L7A       0.124500
     33 H17         40.2350    52.3680    13.9680 ha         1 L7A       0.124500
     34 HN2         35.1940    49.7870    12.7170 hn         1 L7A       0.348500
     35 HN3         38.1740    48.5800     9.6550 hn         1 L7A       0.335500
@<TRIPOS>BOND
     1     1     4 ar  
     2     1    11 ar  
     3     1    12 1   
     4     2    18 ar  
     5     2    19 ar  
     6     3    17 2   
     7     4     7 ar  
     8     4    23 1   
     9     5    12 1   
    10     5    16 1   
    11     5    34 1   
    12     6    12 2   
    13     7     9 ar  
    14     7    24 1   
    15     8    13 1   
    16     8    17 1   
    17     8    35 1   
    18     9    10 ar  
    19     9    25 1   
    20    10    11 ar  
    21    10    26 1   
    22    11    27 1   
    23    13    14 2   
    24    13    28 1   
    25    14    15 1   
    26    14    21 1   
    27    15    16 2   
    28    15    29 1   
    29    16    17 1   
    30    18    22 ar  
    31    18    30 1   
    32    19    20 ar  
    33    19    31 1   
    34    20    21 ar  
    35    20    32 1   
    36    21    22 ar  
    37    22    33 1   
@<TRIPOS>SUBSTRUCTURE
     1 L7A         1 TEMP              0 ****  ****    0 ROOT
