@<TRIPOS>MOLECULE
L7A
   35    37     1     0     0
SMALL
abcg2


@<TRIPOS>ATOM
      1 C1          34.2950    50.8180    14.7080 ca         1 L7A      -0.152600
      2 N1          43.3010    52.2630    13.0740 nb         1 L7A      -0.662000
      3 O1          36.0600    48.6400    10.9230 o          1 L7A      -0.582000
      4 C2          34.0240    51.0270    16.0620 ca         1 L7A      -0.068000
      5 N2          36.0030    50.1540    13.1350 ns         1 L7A      -0.398100
      6 O2          36.5780    51.4740    14.8990 o          1 L7A      -0.594100
      7 C3          32.7170    51.0110    16.5280 ca         1 L7A      -0.119000
      8 N3          38.2830    49.0390    10.5880 ns         1 L7A      -0.346100
      9 C4          31.6640    50.8020    15.6410 ca         1 L7A      -0.085000
     10 C5          31.9250    50.6080    14.2880 ca         1 L7A      -0.119000
     11 C6          33.2340    50.6110    13.8220 ca         1 L7A      -0.068000
     12 C7          35.7230    50.8560    14.2680 c          1 L7A       0.619700
     13 C8          39.4730    49.6040    10.9200 cc         1 L7A      -0.052400
     14 C9          39.5760    50.4010    12.0250 cd         1 L7A      -0.100200
     15 C10         38.4040    50.6160    12.8050 cd         1 L7A      -0.136000
     16 C11         37.2130    50.0380    12.4610 cc         1 L7A      -0.051600
     17 C12         37.1090    49.1910    11.2840 c          1 L7A       0.532200
     18 C13         42.1250    52.8300    13.3640 ca         1 L7A       0.335400
     19 C14         43.2610    51.0810    12.4480 ca         1 L7A       0.335400
     20 C15         42.0860    50.4360    12.0950 ca         1 L7A      -0.160000
     21 C16         40.8560    51.0330    12.3890 ca         1 L7A       0.012200
     22 C17         40.8980    52.2660    13.0480 ca         1 L7A      -0.160000
     23 H2          34.8470    51.1930    16.7430 ha         1 L7A       0.126500
     24 H3          32.5180    51.1630    17.5810 ha         1 L7A       0.119500
     25 H4          30.6430    50.7950    16.0020 ha         1 L7A       0.117000
     26 H5          31.1090    50.4590    13.5930 ha         1 L7A       0.119500
     27 H6          33.4140    50.4820    12.7630 ha         1 L7A       0.126500
     28 H8          40.2920    49.3950    10.2490 h4         1 L7A       0.209000
     29 H10         38.4530    51.2240    13.6920 ha         1 L7A       0.228000
     30 H13         42.1630    53.7890    13.8700 h4         1 L7A       0.020600
     31 H14         44.2170    50.6210    12.2240 h4         1 L7A       0.020600
     32 H15         42.1360    49.4690    11.6140 ha         1 L7A       0.124500
     33 H17         39.9900    52.7970    13.3000 ha         1 L7A       0.124500
     34 HN2         35.2650    49.6090    12.7060 hn         1 L7A       0.348500
     35 HN3         38.2330    48.4610     9.7590 hn         1 L7A       0.335500
@<TRIPOS>BOND
     1     1     4 ar  
     2     1    11 ar  
     3     1    12 1   
     4     2    18 ar  
     5     2    19 ar  
     6     3    17 2   
     7     4     7 ar  
     8     4    23 1   
     9     5    12 1   
    10     5    16 1   
    11     5    34 1   
    12     6    12 2   
    13     7     9 ar  
    14     7    24 1   
    15     8    13 1   
    16     8    17 1   
    17     8    35 1   
    18     9    10 ar  
    19     9    25 1   
    20    10    11 ar  
    21    10    26 1   
    22    11    27 1   
    23    13    14 2   
    24    13    28 1   
    25    14    15 1   
    26    14    21 1   
    27    15    16 2   
    28    15    29 1   
    29    16    17 1   
    30    18    22 ar  
    31    18    30 1   
    32    19    20 ar  
    33    19    31 1   
    34    20    21 ar  
    35    20    32 1   
    36    21    22 ar  
    37    22    33 1   
@<TRIPOS>SUBSTRUCTURE
     1 L7A         1 TEMP              0 ****  ****    0 ROOT
