@<TRIPOS>MOLECULE
L7C
   45    47     1     0     0
SMALL
bcc


@<TRIPOS>ATOM
      1 F          -64.8240    18.2030    13.0180 f          1 L7C      -0.136900
      2 C17        -65.4420    17.5940    14.0470 ca         1 L7C       0.147900
      3 C18        -64.9270    16.3900    14.4920 ca         1 L7C      -0.167000
      4 C16        -65.5470    15.7510    15.5550 ca         1 L7C      -0.099000
      5 C14        -66.6590    16.3270    16.1550 ca         1 L7C      -0.144000
      6 C15        -67.1510    17.5330    15.6810 ca         1 L7C      -0.093000
      7 C13        -66.5550    18.1980    14.6110 ca         1 L7C      -0.126300
      8 C12        -67.1350    19.4820    14.0850 c3         1 L7C      -0.015100
      9 C11        -68.4090    19.2510    13.2570 c3         1 L7C      -0.152400
     10 C10        -68.2040    18.3150    12.0840 c          1 L7C       0.677100
     11 O1         -68.5600    17.1430    12.1410 o          1 L7C      -0.604100
     12 N2         -67.6170    18.8100    10.9800 n          1 L7C      -0.477800
     13 C8         -67.1730    20.1770    10.7530 c5         1 L7C       0.109000
     14 C7         -67.1010    20.2680     9.2360 c5         1 L7C      -0.088400
     15 C9         -67.4030    17.9570     9.8170 c5         1 L7C       0.119000
     16 C6         -66.6900    18.8490     8.8010 c5         1 L7C      -0.164700
     17 C5         -65.1820    18.7080     8.8590 c          1 L7C       0.678100
     18 O          -64.5890    18.4430     9.8870 o          1 L7C      -0.556100
     19 N1         -64.5690    18.9460     7.6680 ns         1 L7C      -0.559400
     20 C1         -63.2110    19.0040     7.3630 ca         1 L7C       0.543200
     21 N          -62.9820    19.2500     6.0790 nb         1 L7C      -0.739000
     22 C2         -62.1830    18.8320     8.2930 ca         1 L7C      -0.258300
     23 C4         -60.8810    18.9260     7.8330 ca         1 L7C      -0.071000
     24 C3         -60.6330    19.1820     6.4920 ca         1 L7C      -0.278300
     25 C          -61.7270    19.3370     5.6600 ca         1 L7C       0.436200
     26 H1         -64.0580    15.9620    14.0090 ha         1 L7C       0.149000
     27 H2         -65.1550    14.8090    15.9140 ha         1 L7C       0.133000
     28 H3         -67.1430    15.8370    16.9890 ha         1 L7C       0.134000
     29 H4         -68.0200    17.9790    16.1520 ha         1 L7C       0.129000
     30 H5         -66.3980    20.0360    13.5040 hc         1 L7C       0.054200
     31 H6         -67.4030    20.1230    14.9260 hc         1 L7C       0.054200
     32 H7         -68.7970    20.2180    12.9290 hc         1 L7C       0.062200
     33 H8         -69.1710    18.8030    13.8950 hc         1 L7C       0.062200
     34 H9         -66.1960    20.3610    11.2050 h1         1 L7C       0.053700
     35 H10        -67.8710    20.9050    11.1640 h1         1 L7C       0.053700
     36 H11        -66.4190    21.0450     8.8930 hc         1 L7C       0.060200
     37 H12        -68.0870    20.4890     8.8250 hc         1 L7C       0.060200
     38 H13        -68.3600    17.6240     9.4110 h1         1 L7C       0.066200
     39 H14        -66.8300    17.0660    10.0770 h1         1 L7C       0.066200
     40 H15        -67.0480    18.6430     7.7910 hc         1 L7C       0.071700
     41 H16        -65.1600    19.1190     6.8660 hn         1 L7C       0.331500
     42 H17        -62.3880    18.6320     9.3310 ha         1 L7C       0.176000
     43 H18        -60.0620    18.7990     8.5290 ha         1 L7C       0.139000
     44 H19        -59.6270    19.2610     6.1050 ha         1 L7C       0.144000
     45 H20        -61.5910    19.5380     4.6030 h4         1 L7C       0.018100
@<TRIPOS>BOND
     1     1     2 1   
     2     2     3 ar  
     3     2     7 ar  
     4     3     4 ar  
     5     3    26 1   
     6     4     5 ar  
     7     4    27 1   
     8     5     6 ar  
     9     5    28 1   
    10     6     7 ar  
    11     6    29 1   
    12     7     8 1   
    13     8     9 1   
    14     8    30 1   
    15     8    31 1   
    16     9    10 1   
    17     9    32 1   
    18     9    33 1   
    19    10    11 2   
    20    10    12 1   
    21    12    13 1   
    22    12    15 1   
    23    13    14 1   
    24    13    34 1   
    25    13    35 1   
    26    14    16 1   
    27    14    36 1   
    28    14    37 1   
    29    15    16 1   
    30    15    38 1   
    31    15    39 1   
    32    16    17 1   
    33    16    40 1   
    34    17    18 2   
    35    17    19 1   
    36    19    20 1   
    37    19    41 1   
    38    20    21 ar  
    39    20    22 ar  
    40    21    25 ar  
    41    22    23 ar  
    42    22    42 1   
    43    23    24 ar  
    44    23    43 1   
    45    24    25 ar  
    46    24    44 1   
    47    25    45 1   
@<TRIPOS>SUBSTRUCTURE
     1 L7C         1 TEMP              0 ****  ****    0 ROOT
