@<TRIPOS>MOLECULE
L7C
   45    47     1     0     0
SMALL
No Charge or Current Charge


@<TRIPOS>ATOM
      1 F          -64.9220    17.6650    12.7860 f          1 L7C      -0.172000
      2 C17        -65.4330    17.2510    13.9680 ca         1 L7C       0.183000
      3 C18        -64.9450    16.0650    14.5400 ca         1 L7C      -0.149000
      4 C16        -65.4600    15.6100    15.7650 ca         1 L7C      -0.081000
      5 C14        -66.4650    16.3470    16.4150 ca         1 L7C      -0.126000
      6 C15        -66.9530    17.5350    15.8440 ca         1 L7C      -0.075000
      7 C13        -66.4420    17.9990    14.6150 ca         1 L7C      -0.126300
      8 C12        -66.9900    19.2900    14.0110 c3         1 L7C      -0.015100
      9 C11        -68.3220    19.0770    13.2530 c3         1 L7C      -0.152400
     10 C10        -68.1160    18.2600    11.9640 c          1 L7C       0.610100
     11 O1         -68.2470    17.0420    11.9770 o          1 L7C      -0.604100
     12 N2         -67.7350    18.9190    10.7750 n          1 L7C      -0.410800
     13 C8         -67.6040    20.3870    10.6330 c5         1 L7C       0.109000
     14 C7         -67.4630    20.5620     9.0970 c5         1 L7C      -0.088400
     15 C9         -67.4170    18.1740     9.5380 c5         1 L7C       0.119000
     16 C6         -66.7490    19.2540     8.6440 c5         1 L7C      -0.164700
     17 C5         -65.2190    19.3100     8.9280 c          1 L7C       0.611100
     18 O          -64.6750    19.5350    10.0000 o          1 L7C      -0.556100
     19 N1         -64.5430    19.0770     7.7520 ns         1 L7C      -0.325900
     20 C1         -63.1730    19.0100     7.4780 ca         1 L7C       0.477900
     21 N          -62.9520    18.9590     6.1500 nb         1 L7C      -0.739000
     22 C2         -62.1390    18.9870     8.4350 ca         1 L7C      -0.175000
     23 C4         -60.8080    18.9140     7.9930 ca         1 L7C      -0.053000
     24 C3         -60.5760    18.8660     6.6100 ca         1 L7C      -0.195000
     25 C          -61.6690    18.8890     5.7270 ca         1 L7C       0.370900
     26 H1         -64.1690    15.4990    14.0310 ha         1 L7C       0.131000
     27 H2         -65.0840    14.6910    16.2090 ha         1 L7C       0.115000
     28 H3         -66.8660    15.9970    17.3640 ha         1 L7C       0.116000
     29 H4         -67.7320    18.0950    16.3570 ha         1 L7C       0.111000
     30 H5         -66.2560    19.7580    13.3430 hc         1 L7C       0.054200
     31 H6         -67.1610    20.0200    14.8130 hc         1 L7C       0.054200
     32 H7         -68.7060    20.0730    13.0150 hc         1 L7C       0.062200
     33 H8         -69.0280    18.5570    13.9100 hc         1 L7C       0.062200
     34 H9         -66.7170    20.7530    11.1670 h1         1 L7C       0.053700
     35 H10        -68.4830    20.9290    11.0080 h1         1 L7C       0.053700
     36 H11        -66.9140    21.4710     8.8260 hc         1 L7C       0.060200
     37 H12        -68.4530    20.6370     8.6330 hc         1 L7C       0.060200
     38 H13        -68.3400    17.7940     9.0790 h1         1 L7C       0.066200
     39 H14        -66.7530    17.3190     9.7250 h1         1 L7C       0.066200
     40 H15        -66.9270    19.0460     7.5820 hc         1 L7C       0.071700
     41 H16        -65.1240    18.9370     6.9380 hn         1 L7C       0.165000
     42 H17        -62.3490    19.0150     9.4980 ha         1 L7C       0.158000
     43 H18        -59.9820    18.8930     8.7010 ha         1 L7C       0.121000
     44 H19        -59.5640    18.8080     6.2180 ha         1 L7C       0.126000
     45 H20        -61.5130    18.8500     4.6500 h4         1 L7C       0.018100
@<TRIPOS>BOND
     1     1     2 1   
     2     2     3 ar  
     3     2     7 ar  
     4     3     4 ar  
     5     3    26 1   
     6     4     5 ar  
     7     4    27 1   
     8     5     6 ar  
     9     5    28 1   
    10     6     7 ar  
    11     6    29 1   
    12     7     8 1   
    13     8     9 1   
    14     8    30 1   
    15     8    31 1   
    16     9    10 1   
    17     9    32 1   
    18     9    33 1   
    19    10    11 2   
    20    10    12 1   
    21    12    13 1   
    22    12    15 1   
    23    13    14 1   
    24    13    34 1   
    25    13    35 1   
    26    14    16 1   
    27    14    36 1   
    28    14    37 1   
    29    15    16 1   
    30    15    38 1   
    31    15    39 1   
    32    16    17 1   
    33    16    40 1   
    34    17    18 2   
    35    17    19 1   
    36    19    20 1   
    37    19    41 1   
    38    20    21 ar  
    39    20    22 ar  
    40    21    25 ar  
    41    22    23 ar  
    42    22    42 1   
    43    23    24 ar  
    44    23    43 1   
    45    24    25 ar  
    46    24    44 1   
    47    25    45 1   
@<TRIPOS>SUBSTRUCTURE
     1 L7C         1 TEMP              0 ****  ****    0 ROOT
