@<TRIPOS>MOLECULE
L7D
   48    50     1     0     0
SMALL
No Charge or Current Charge


@<TRIPOS>ATOM
      1 C13          2.7240    -3.0170     1.3210 ca         1 L7D      -0.176000
      2 C18          4.1150     3.5990     0.2460 c5         1 L7D      -0.079400
      3 C17          2.7290     3.2400    -0.3510 c5         1 L7D      -0.058400
      4 C16          1.6770    -1.6250    -0.8880 ca         1 L7D       0.013000
      5 C15          1.0920    -2.8340    -0.4760 ca         1 L7D      -0.176000
      6 C19          4.1090     2.9560     1.6680 c5         1 L7D      -0.079400
      7 C20          2.8860     1.9830     1.6980 c5         1 L7D      -0.058400
      8 C11          2.7910    -1.1100    -0.1920 ca         1 L7D      -0.280500
      9 C12          3.3140    -1.8070     0.9170 ca         1 L7D       0.013000
     10 C1          -1.1390     1.4570    -1.1600 ca         1 L7D      -0.076500
     11 C2          -1.7900     0.6880    -0.1670 ca         1 L7D      -0.147300
     12 C3          -1.0220     0.2940     0.9530 ca         1 L7D      -0.076500
     13 C4           0.3250     0.6710     1.0810 ca         1 L7D      -0.094000
     14 C5           0.9670     1.4590     0.1000 ca         1 L7D      -0.062300
     15 C6           0.2090     1.8310    -1.0300 ca         1 L7D      -0.094000
     16 C8           2.4760     1.7960     0.1960 c5         1 L7D      -0.163700
     17 C9          -3.3140    -0.9820    -1.3530 c3         1 L7D       0.304000
     18 C10         -4.0440    -0.0620     0.9820 c3         1 L7D       0.304000
     19 F1          -2.5840    -2.0200    -0.8790 f          1 L7D      -0.097333
     20 F2          -4.5760    -1.4300    -1.5550 f          1 L7D      -0.097333
     21 F3          -2.8070    -0.6660    -2.5690 f          1 L7D      -0.097333
     22 O1          -3.9530     1.3720    -0.9950 oh         1 L7D      -0.620000
     23 S1           3.5030     0.4730    -0.6880 sy         1 L7D       1.008500
     24 C14          1.6170    -3.5250     0.6250 ca         1 L7D       0.228000
     25 O2           4.8770     0.5180    -0.1670 o          1 L7D      -0.513000
     26 O3           3.2560     0.6270    -2.1290 o          1 L7D      -0.513000
     27 F4          -3.8470     0.9200     1.8940 f          1 L7D      -0.097333
     28 F5          -5.3820    -0.1470     0.7820 f          1 L7D      -0.097333
     29 F6          -3.6590    -1.2300     1.5470 f          1 L7D      -0.097333
     30 F7           1.0500    -4.6860     1.0200 f          1 L7D      -0.166000
     31 H1           3.1200    -3.5600     2.1750 ha         1 L7D       0.142000
     32 H2           4.9300     3.1980    -0.3670 hc         1 L7D       0.056700
     33 H3           4.2700     4.6830     0.2870 hc         1 L7D       0.056700
     34 H4           1.9660     3.9410     0.0070 hc         1 L7D       0.058700
     35 H5           2.7340     3.2990    -1.4450 hc         1 L7D       0.058700
     36 H6           1.2540    -1.0870    -1.7360 ha         1 L7D       0.142500
     37 H7           0.2310    -3.2320    -1.0050 ha         1 L7D       0.142000
     38 H8           5.0500     2.4280     1.8620 hc         1 L7D       0.056700
     39 H9           4.0180     3.7180     2.4510 hc         1 L7D       0.056700
     40 H10          3.1250     1.0380     2.1990 hc         1 L7D       0.058700
     41 H11          2.0750     2.4470     2.2720 hc         1 L7D       0.058700
     42 H12          4.1660    -1.4160     1.4710 ha         1 L7D       0.142500
     43 H13         -1.6700     1.7570    -2.0610 ha         1 L7D       0.132500
     44 H14         -1.4390    -0.3270     1.7390 ha         1 L7D       0.132500
     45 H15          0.8730     0.3100     1.9460 ha         1 L7D       0.130500
     46 H16          0.6630     2.3950    -1.8400 ha         1 L7D       0.130500
     47 H17         -3.7250     2.1750    -0.4770 ho         1 L7D       0.481000
     48 C7          -3.2720     0.2540    -0.3690 c3         1 L7D       0.109300
@<TRIPOS>BOND
     1     1     9 ar  
     2     1    24 ar  
     3     1    31 1   
     4     2     3 1   
     5     2     6 1   
     6     2    32 1   
     7     2    33 1   
     8     3    16 1   
     9     3    34 1   
    10     3    35 1   
    11     4     5 ar  
    12     4     8 ar  
    13     4    36 1   
    14     5    24 ar  
    15     5    37 1   
    16     6     7 1   
    17     6    38 1   
    18     6    39 1   
    19     7    16 1   
    20     7    40 1   
    21     7    41 1   
    22     8     9 ar  
    23     8    23 1   
    24     9    42 1   
    25    10    11 ar  
    26    10    15 ar  
    27    10    43 1   
    28    11    12 ar  
    29    11    48 1   
    30    12    13 ar  
    31    12    44 1   
    32    13    14 ar  
    33    13    45 1   
    34    14    15 ar  
    35    14    16 1   
    36    15    46 1   
    37    16    23 1   
    38    17    19 1   
    39    17    20 1   
    40    17    21 1   
    41    17    48 1   
    42    18    27 1   
    43    18    28 1   
    44    18    29 1   
    45    18    48 1   
    46    22    47 1   
    47    22    48 1   
    48    23    25 2   
    49    23    26 2   
    50    24    30 1   
@<TRIPOS>SUBSTRUCTURE
     1 L7D         1 TEMP              0 ****  ****    0 ROOT
