@<TRIPOS>MOLECULE
L7D
   48    50     1     0     0
SMALL
abcg2


@<TRIPOS>ATOM
      1 C13          2.9410    -3.0230     1.1320 ca         1 L7D      -0.176000
      2 C18          4.0840     3.5300     0.4510 c5         1 L7D      -0.079400
      3 C17          2.8460     3.1180    -0.3330 c5         1 L7D      -0.058400
      4 C16          1.4970    -1.6210    -0.8010 ca         1 L7D       0.013000
      5 C15          1.0360    -2.8480    -0.3610 ca         1 L7D      -0.176000
      6 C19          3.7660     3.0450     1.8590 c5         1 L7D      -0.079400
      7 C20          3.0510     1.7000     1.6650 c5         1 L7D      -0.058400
      8 C11          2.6710    -1.0980    -0.2710 ca         1 L7D      -0.280500
      9 C12          3.3980    -1.7930     0.6870 ca         1 L7D       0.013000
     10 C1          -1.1240     1.5770    -1.0710 ca         1 L7D      -0.076500
     11 C2          -1.7520     0.7360    -0.1560 ca         1 L7D      -0.147300
     12 C3          -1.0100     0.2600     0.9200 ca         1 L7D      -0.076500
     13 C4           0.3220     0.6090     1.0650 ca         1 L7D      -0.094000
     14 C5           0.9570     1.4470     0.1530 ca         1 L7D      -0.062300
     15 C6           0.2060     1.9300    -0.9150 ca         1 L7D      -0.094000
     16 C8           2.4330     1.7410     0.2440 c5         1 L7D      -0.163700
     17 C9          -3.1790    -1.0670    -1.1030 c3         1 L7D       0.304000
     18 C10         -4.0570     0.3210     0.8700 c3         1 L7D       0.304000
     19 F1          -2.6070    -1.9930    -0.3340 f          1 L7D      -0.097333
     20 F2          -4.4020    -1.4960    -1.4100 f          1 L7D      -0.097333
     21 F3          -2.4840    -1.0000    -2.2360 f          1 L7D      -0.097333
     22 O1          -3.8410     1.1370    -1.3440 oh         1 L7D      -0.620000
     23 S1           3.2480     0.4770    -0.8400 sy         1 L7D       1.008500
     24 C14          1.7680    -3.5240     0.5990 ca         1 L7D       0.228000
     25 O2           4.6950     0.5350    -0.6260 o          1 L7D      -0.513000
     26 O3           2.7430     0.6610    -2.2000 o          1 L7D      -0.513000
     27 F4          -3.9190     1.4960     1.4880 f          1 L7D      -0.097333
     28 F5          -5.3490     0.1660     0.5940 f          1 L7D      -0.097333
     29 F6          -3.7280    -0.6350     1.7410 f          1 L7D      -0.097333
     30 F7           1.3280    -4.7110     1.0220 f          1 L7D      -0.166000
     31 H1           3.4940    -3.5830     1.8730 ha         1 L7D       0.142000
     32 H2           4.9740     3.0340     0.0630 hc         1 L7D       0.056700
     33 H3           4.2570     4.6050     0.4010 hc         1 L7D       0.056700
     34 H4           2.0340     3.8170    -0.1170 hc         1 L7D       0.058700
     35 H5           2.9790     3.1230    -1.4150 hc         1 L7D       0.058700
     36 H6           0.9350    -1.0810    -1.5510 ha         1 L7D       0.142500
     37 H7           0.1240    -3.2730    -0.7570 ha         1 L7D       0.142000
     38 H8           4.6460     2.9490     2.4940 hc         1 L7D       0.056700
     39 H9           3.0900     3.7500     2.3460 hc         1 L7D       0.056700
     40 H10          3.7560     0.8770     1.7850 hc         1 L7D       0.058700
     41 H11          2.2840     1.5550     2.4220 hc         1 L7D       0.058700
     42 H12          4.3230    -1.3970     1.0840 ha         1 L7D       0.142500
     43 H13         -1.6510     1.9580    -1.9330 ha         1 L7D       0.132500
     44 H14         -1.4310    -0.4060     1.6570 ha         1 L7D       0.132500
     45 H15          0.8650     0.1890     1.9000 ha         1 L7D       0.130500
     46 H16          0.6550     2.5810    -1.6510 ha         1 L7D       0.130500
     47 H17         -3.7060     2.0680    -1.1280 ho         1 L7D       0.481000
     48 C7          -3.1960     0.3210    -0.4220 c3         1 L7D       0.109300
@<TRIPOS>BOND
     1     1     9 ar  
     2     1    24 ar  
     3     1    31 1   
     4     2     3 1   
     5     2     6 1   
     6     2    32 1   
     7     2    33 1   
     8     3    16 1   
     9     3    34 1   
    10     3    35 1   
    11     4     5 ar  
    12     4     8 ar  
    13     4    36 1   
    14     5    24 ar  
    15     5    37 1   
    16     6     7 1   
    17     6    38 1   
    18     6    39 1   
    19     7    16 1   
    20     7    40 1   
    21     7    41 1   
    22     8     9 ar  
    23     8    23 1   
    24     9    42 1   
    25    10    11 ar  
    26    10    15 ar  
    27    10    43 1   
    28    11    12 ar  
    29    11    48 1   
    30    12    13 ar  
    31    12    44 1   
    32    13    14 ar  
    33    13    45 1   
    34    14    15 ar  
    35    14    16 1   
    36    15    46 1   
    37    16    23 1   
    38    17    19 1   
    39    17    20 1   
    40    17    21 1   
    41    17    48 1   
    42    18    27 1   
    43    18    28 1   
    44    18    29 1   
    45    18    48 1   
    46    22    47 1   
    47    22    48 1   
    48    23    25 2   
    49    23    26 2   
    50    24    30 1   
@<TRIPOS>SUBSTRUCTURE
     1 L7D         1 TEMP              0 ****  ****    0 ROOT
