@<TRIPOS>MOLECULE
L7G
   64    66     1     0     0
SMALL
abcg2


@<TRIPOS>ATOM
      1 C1          -6.8120     0.3850    -1.0240 c3         1 L7G       0.089600
      2 C2          -5.7700     1.4230    -1.4290 c3         1 L7G      -0.032200
      3 C3          -4.6410     1.4380    -0.4480 c2         1 L7G      -0.201200
      4 C4          -3.4080     1.0390    -0.7290 c2         1 L7G      -0.216200
      5 C5          -2.2660     1.1270     0.2400 c3         1 L7G       0.169900
      6 C6          -1.9000    -1.3490     0.0910 c          1 L7G       0.599100
      7 C7          -0.8490    -2.4540     0.2330 c3         1 L7G       0.039700
      8 C8          -0.5990    -2.8580     1.7050 c3         1 L7G      -0.077700
      9 C9           0.0400    -1.7590     2.5480 c3         1 L7G      -0.092600
     10 C10         -1.8710    -3.3890     2.3550 c3         1 L7G      -0.092600
     11 C11          1.2820    -2.9650    -0.8910 c          1 L7G       0.616100
     12 C12          2.5230    -2.3250    -1.5270 c5         1 L7G       0.045200
     13 C13          2.4040    -2.4090    -3.0500 c3         1 L7G      -0.081100
     14 C14          3.7940    -3.0460    -1.0180 c5         1 L7G       0.048600
     15 C15          3.7440    -0.5420    -0.8040 ce         1 L7G       0.533800
     16 C16          3.9860     0.8280    -0.3200 ca         1 L7G      -0.092900
     17 C17          5.2390     1.2860     0.0560 ca         1 L7G      -0.134000
     18 C18          5.3320     2.5650     0.5890 ca         1 L7G       0.342900
     19 C19          3.0850     2.9200     0.4150 ca         1 L7G       0.321300
     20 C20          2.8960     1.6770    -0.1600 ca         1 L7G      -0.110000
     21 C21          1.9320     3.8510     0.7140 c3         1 L7G       0.050700
     22 C22         -0.1630     2.5680     0.6410 c          1 L7G       0.598100
     23 C23         -1.4010     2.3140    -0.1960 c3         1 L7G      -0.180400
     24 N1          -1.4490    -0.0840     0.2580 ns         1 L7G      -0.509900
     25 N2           0.3770    -2.0850    -0.4440 ns         1 L7G      -0.493900
     26 N3           2.5910    -0.9320    -1.1390 n2         1 L7G      -0.609900
     27 N4           4.2880     3.3570     0.7810 nb         1 L7G      -0.661000
     28 N5           0.6830     3.4670     0.1110 ns         1 L7G      -0.505900
     29 O1          -3.0540    -1.6370    -0.1650 o          1 L7G      -0.583100
     30 O2           1.1630    -4.1780    -0.8340 o          1 L7G      -0.599100
     31 O3           0.0490     2.0000     1.7050 o          1 L7G      -0.607100
     32 S1          -8.1750     0.4010    -2.2370 sh         1 L7G      -0.469800
     33 S2           5.0430    -1.7340    -0.8560 ss         1 L7G      -0.350200
     34 H1          -6.3600    -0.6060    -0.9930 h1         1 L7G       0.066200
     35 H2          -7.2090     0.6110    -0.0340 h1         1 L7G       0.066200
     36 H3          -5.3930     1.2000    -2.4300 hc         1 L7G       0.059200
     37 H4          -6.2420     2.4090    -1.4740 hc         1 L7G       0.059200
     38 H5          -4.8810     1.7640     0.5620 ha         1 L7G       0.169000
     39 H6          -3.1580     0.7190    -1.7370 ha         1 L7G       0.183000
     40 H7          -2.6590     1.3190     1.2440 h1         1 L7G       0.059700
     41 H8          -1.2720    -3.3230    -0.2760 h1         1 L7G       0.098700
     42 H9           0.1120    -3.6880     1.6490 hc         1 L7G       0.067700
     43 H10         -0.6550    -0.9460     2.7640 hc         1 L7G       0.040200
     44 H11          0.3570    -2.1670     3.5080 hc         1 L7G       0.040200
     45 H12          0.9290    -1.3390     2.0730 hc         1 L7G       0.040200
     46 H13         -2.3230    -4.1810     1.7570 hc         1 L7G       0.040200
     47 H14         -1.6450    -3.8050     3.3380 hc         1 L7G       0.040200
     48 H15         -2.6190    -2.6070     2.4960 hc         1 L7G       0.040200
     49 H16          2.2790    -3.4430    -3.3690 hc         1 L7G       0.056367
     50 H17          1.5520    -1.8290    -3.4030 hc         1 L7G       0.056367
     51 H18          3.3070    -2.0150    -3.5170 hc         1 L7G       0.056367
     52 H19          3.6540    -3.5050    -0.0400 h1         1 L7G       0.096200
     53 H20          4.1480    -3.8060    -1.7100 h1         1 L7G       0.096200
     54 H22          6.1320     0.6820    -0.0410 ha         1 L7G       0.139000
     55 H23          6.2990     2.9560     0.8830 h4         1 L7G       0.027100
     56 H24          1.9170     1.3490    -0.4700 ha         1 L7G       0.139000
     57 H25          1.8130     3.9180     1.7980 h1         1 L7G       0.079700
     58 H26          2.1840     4.8530     0.3680 h1         1 L7G       0.079700
     59 H27         -1.1110     2.1910    -1.2440 hc         1 L7G       0.071200
     60 H28         -2.0220     3.2130    -0.1580 hc         1 L7G       0.071200
     61 H29         -0.5810     0.0290     0.7610 hn         1 L7G       0.328500
     62 H30          0.6080    -1.1140    -0.5970 hn         1 L7G       0.343500
     63 H33          0.4620     3.8640    -0.7880 hn         1 L7G       0.318500
     64 H34         -8.9540    -0.5100    -1.6440 hs         1 L7G       0.215800
@<TRIPOS>BOND
     1     1     2 1   
     2     1    32 1   
     3     1    34 1   
     4     1    35 1   
     5     2     3 1   
     6     2    36 1   
     7     2    37 1   
     8     3     4 2   
     9     3    38 1   
    10     4     5 1   
    11     4    39 1   
    12     5    23 1   
    13     5    24 1   
    14     5    40 1   
    15     6     7 1   
    16     6    24 1   
    17     6    29 2   
    18     7     8 1   
    19     7    25 1   
    20     7    41 1   
    21     8     9 1   
    22     8    10 1   
    23     8    42 1   
    24     9    43 1   
    25     9    44 1   
    26     9    45 1   
    27    10    46 1   
    28    10    47 1   
    29    10    48 1   
    30    11    12 1   
    31    11    25 1   
    32    11    30 2   
    33    12    13 1   
    34    12    14 1   
    35    12    26 1   
    36    13    49 1   
    37    13    50 1   
    38    13    51 1   
    39    14    33 1   
    40    14    52 1   
    41    14    53 1   
    42    15    16 1   
    43    15    26 2   
    44    15    33 1   
    45    16    17 ar  
    46    16    20 ar  
    47    17    18 ar  
    48    17    54 1   
    49    18    27 ar  
    50    18    55 1   
    51    19    20 ar  
    52    19    21 1   
    53    19    27 ar  
    54    20    56 1   
    55    21    28 1   
    56    21    57 1   
    57    21    58 1   
    58    22    23 1   
    59    22    28 1   
    60    22    31 2   
    61    23    59 1   
    62    23    60 1   
    63    24    61 1   
    64    25    62 1   
    65    28    63 1   
    66    32    64 1   
@<TRIPOS>SUBSTRUCTURE
     1 L7G         1 TEMP              0 ****  ****    0 ROOT
