@<TRIPOS>MOLECULE
L7G
   64    66     1     0     0
SMALL
No Charge or Current Charge


@<TRIPOS>ATOM
      1 C1          -5.6630    -0.4450    -2.5830 c3         1 L7G       0.089600
      2 C2          -5.6130     0.9280    -1.8880 c3         1 L7G      -0.032200
      3 C3          -4.5990     0.9640    -0.7630 c2         1 L7G      -0.201200
      4 C4          -3.4830     1.7110    -0.7470 c2         1 L7G      -0.216200
      5 C5          -2.4730     1.7300     0.3790 c3         1 L7G       0.169900
      6 C6          -1.8310    -0.5860     1.1360 c          1 L7G       0.599100
      7 C7          -0.9240    -1.8400     0.8770 c3         1 L7G       0.039700
      8 C8          -0.0430    -2.2500     2.1020 c3         1 L7G      -0.077700
      9 C9           0.9190    -1.1230     2.5560 c3         1 L7G      -0.092600
     10 C10         -0.8610    -2.8050     3.2930 c3         1 L7G      -0.092600
     11 C11          0.3870    -2.7550    -1.0940 c          1 L7G       0.616100
     12 C12          1.6110    -2.2870    -1.9810 c5         1 L7G       0.045200
     13 C13          1.3050    -2.5150    -3.4820 c3         1 L7G      -0.081100
     14 C14          2.8470    -3.0920    -1.4670 c5         1 L7G       0.048600
     15 C15          3.2050    -0.6670    -1.5320 ce         1 L7G       0.533800
     16 C16          3.6340     0.4120    -0.5830 ca         1 L7G      -0.092900
     17 C17          4.9880     0.6860    -0.2930 ca         1 L7G      -0.134000
     18 C18          5.3070     1.7170     0.6100 ca         1 L7G       0.342900
     19 C19          3.0710     2.2250     0.9600 ca         1 L7G       0.321300
     20 C20          2.6730     1.2120     0.0680 ca         1 L7G      -0.110000
     21 C21          2.0240     3.0910     1.6670 c3         1 L7G       0.050700
     22 C22         -0.5040     3.0080     1.4250 c          1 L7G       0.598100
     23 C23         -1.6230     3.0190     0.3830 c3         1 L7G      -0.180400
     24 N1          -1.6720     0.5060     0.2950 ns         1 L7G      -0.509900
     25 N2          -0.0550    -1.7020    -0.3180 ns         1 L7G      -0.493900
     26 N3           1.9460    -0.8230    -1.8040 n2         1 L7G      -0.609900
     27 N4           4.3730     2.4770     1.2310 nb         1 L7G      -0.661000
     28 N5           0.7580     3.2080     0.9100 ns         1 L7G      -0.505900
     29 O1          -2.6680    -0.5730     2.0280 o          1 L7G      -0.583100
     30 O2          -0.1010    -3.8760    -1.0400 o          1 L7G      -0.599100
     31 O3          -0.7080     2.8680     2.6210 o          1 L7G      -0.607100
     32 S1          -6.8950    -0.5230    -3.9670 sh         1 L7G      -0.469800
     33 S2           4.2970    -2.0270    -1.8650 ss         1 L7G      -0.350200
     34 H1          -4.6700    -0.6820    -2.9890 h1         1 L7G       0.066200
     35 H2          -5.9200    -1.2170    -1.8460 h1         1 L7G       0.066200
     36 H3          -5.3800     1.6930    -2.6390 hc         1 L7G       0.059200
     37 H4          -6.6100     1.1680    -1.4980 hc         1 L7G       0.059200
     38 H5          -4.8370     0.3130     0.0820 ha         1 L7G       0.169000
     39 H6          -3.2420     2.3610    -1.5910 ha         1 L7G       0.183000
     40 H7          -3.0260     1.7220     1.3280 h1         1 L7G       0.059700
     41 H8          -1.6280    -2.6580     0.6740 h1         1 L7G       0.098700
     42 H9           0.5880    -3.0850     1.7710 hc         1 L7G       0.067700
     43 H10          0.3660    -0.2360     2.8860 hc         1 L7G       0.040200
     44 H11          1.5430    -1.4640     3.3920 hc         1 L7G       0.040200
     45 H12          1.5910    -0.8300     1.7420 hc         1 L7G       0.040200
     46 H13         -1.5650    -3.5760     2.9570 hc         1 L7G       0.040200
     47 H14         -0.1940    -3.2610     4.0350 hc         1 L7G       0.040200
     48 H15         -1.4260    -2.0140     3.7980 hc         1 L7G       0.040200
     49 H16          1.0910    -3.5710    -3.6880 hc         1 L7G       0.056367
     50 H17          0.4320    -1.9310    -3.7990 hc         1 L7G       0.056367
     51 H18          2.1510    -2.2190    -4.1150 hc         1 L7G       0.056367
     52 H19          2.8050    -3.2270    -0.3770 h1         1 L7G       0.096200
     53 H20          2.9370    -4.0840    -1.9280 h1         1 L7G       0.096200
     54 H22          5.7920     0.1210    -0.7570 ha         1 L7G       0.139000
     55 H23          6.3470     1.9420     0.8450 h4         1 L7G       0.027100
     56 H24          1.6160     1.0470    -0.1090 ha         1 L7G       0.139000
     57 H25          1.8260     2.6560     2.6550 h1         1 L7G       0.079700
     58 H26          2.4310     4.0990     1.8220 h1         1 L7G       0.079700
     59 H27         -1.1980     3.1850    -0.6140 hc         1 L7G       0.071200
     60 H28         -2.2850     3.8620     0.6100 hc         1 L7G       0.071200
     61 H29         -1.0520     0.3930    -0.4940 hn         1 L7G       0.328500
     62 H30          0.4860    -0.8540    -0.4480 hn         1 L7G       0.343500
     63 H33          0.8140     3.3830    -0.0870 hn         1 L7G       0.318500
     64 H34         -6.6540    -1.8140    -4.3070 hs         1 L7G       0.215800
@<TRIPOS>BOND
     1     1     2 1   
     2     1    32 1   
     3     1    34 1   
     4     1    35 1   
     5     2     3 1   
     6     2    36 1   
     7     2    37 1   
     8     3     4 2   
     9     3    38 1   
    10     4     5 1   
    11     4    39 1   
    12     5    23 1   
    13     5    24 1   
    14     5    40 1   
    15     6     7 1   
    16     6    24 1   
    17     6    29 2   
    18     7     8 1   
    19     7    25 1   
    20     7    41 1   
    21     8     9 1   
    22     8    10 1   
    23     8    42 1   
    24     9    43 1   
    25     9    44 1   
    26     9    45 1   
    27    10    46 1   
    28    10    47 1   
    29    10    48 1   
    30    11    12 1   
    31    11    25 1   
    32    11    30 2   
    33    12    13 1   
    34    12    14 1   
    35    12    26 1   
    36    13    49 1   
    37    13    50 1   
    38    13    51 1   
    39    14    33 1   
    40    14    52 1   
    41    14    53 1   
    42    15    16 1   
    43    15    26 2   
    44    15    33 1   
    45    16    17 ar  
    46    16    20 ar  
    47    17    18 ar  
    48    17    54 1   
    49    18    27 ar  
    50    18    55 1   
    51    19    20 ar  
    52    19    21 1   
    53    19    27 ar  
    54    20    56 1   
    55    21    28 1   
    56    21    57 1   
    57    21    58 1   
    58    22    23 1   
    59    22    28 1   
    60    22    31 2   
    61    23    59 1   
    62    23    60 1   
    63    24    61 1   
    64    25    62 1   
    65    28    63 1   
    66    32    64 1   
@<TRIPOS>SUBSTRUCTURE
     1 L7G         1 TEMP              0 ****  ****    0 ROOT
