@<TRIPOS>MOLECULE
L7H
   58    61     1     0     0
SMALL
bcc


@<TRIPOS>ATOM
      1 C4           1.6780   -29.3250   -44.6900 ca         1 L7H      -0.171000
      2 C5          -0.5090   -29.7970   -45.6520 ca         1 L7H       0.469600
      3 C6           0.4500   -30.0210   -44.6540 ca         1 L7H      -0.308600
      4 C7           0.0840   -30.9820   -43.6560 ca         1 L7H       0.739200
      5 N12          0.9080   -31.2880   -42.6390 nu         1 L7H      -0.877900
      6 C17          5.2150   -26.8930   -45.2350 c5         1 L7H       0.137400
      7 C20          4.9030   -29.2160   -45.2800 c5         1 L7H      -0.147400
      8 C21          0.6200   -32.3450   -41.6890 c3         1 L7H       0.290800
      9 C22          0.7180   -33.7130   -42.3330 ca         1 L7H      -0.063300
     10 C24          1.9070   -34.1210   -42.9220 ca         1 L7H      -0.165000
     11 C26          0.9180   -36.2330   -43.5100 ca         1 L7H      -0.145000
     12 C28         -0.3780   -34.5620   -42.3360 ca         1 L7H      -0.097000
     13 C1          -0.2280   -28.8680   -46.6770 ca         1 L7H      -0.270300
     14 C16          4.1550   -27.9340   -44.9330 c5         1 L7H       0.108100
     15 C19          5.7330   -28.7840   -46.4840 c5         1 L7H       0.137400
     16 C2           0.9670   -28.1950   -46.7070 ca         1 L7H       0.156100
     17 C23          1.5580   -32.2100   -40.4970 c3         1 L7H      -0.105100
     18 C25          2.0300   -35.3800   -43.5150 ca         1 L7H       0.147600
     19 C27         -0.2660   -35.8160   -42.9260 ca         1 L7H      -0.156300
     20 C29         -1.4700   -36.7050   -42.9220 c3         1 L7H       0.718200
     21 C3           1.9450   -28.4290   -45.6910 ca         1 L7H       0.109100
     22 C9          -1.9220   -31.3000   -44.7090 ca         1 L7H       0.714300
     23 F30         -2.5330   -36.1000   -43.4740 f          1 L7H      -0.236300
     24 F31         -1.2830   -37.8460   -43.5930 f          1 L7H      -0.236300
     25 F32         -1.8340   -37.0440   -41.6760 f          1 L7H      -0.236300
     26 N10         -1.7020   -30.4480   -45.6760 nb         1 L7H      -0.743000
     27 N33          3.1960   -35.7550   -44.1420 nv         1 L7H      -0.825200
     28 N8          -1.0840   -31.5910   -43.7020 nb         1 L7H      -0.818000
     29 O11          3.0680   -27.7030   -45.8200 os         1 L7H      -0.293900
     30 O14          1.3250   -27.3010   -47.6320 os         1 L7H      -0.292900
     31 O18          5.9530   -27.3860   -46.3370 os         1 L7H      -0.405600
     32 H35          2.4170   -29.4910   -43.9190 ha         1 L7H       0.125000
     33 H36          1.8250   -30.8760   -42.6070 hn         1 L7H       0.435800
     34 H39         -3.8170   -31.8270   -45.5740 hc         1 L7H       0.057700
     35 H37         -3.0460   -33.1160   -44.6280 hc         1 L7H       0.057700
     36 H38         -3.8030   -31.7660   -43.8070 hc         1 L7H       0.057700
     37 H40          0.8870   -26.2590   -49.2980 h1         1 L7H       0.045367
     38 H41          0.1740   -27.8830   -49.2700 h1         1 L7H       0.045367
     39 H42         -0.5250   -26.5850   -48.2740 h1         1 L7H       0.045367
     40 H44          4.7900   -25.9170   -45.4770 h1         1 L7H       0.059200
     41 H49          4.2570   -30.0690   -45.4900 hc         1 L7H       0.062200
     42 H48          5.5410   -29.4890   -44.4380 hc         1 L7H       0.062200
     43 H50         -0.4050   -32.2110   -41.3380 h1         1 L7H       0.085700
     44 H54          2.7630   -33.4550   -42.9340 ha         1 L7H       0.126000
     45 H55          1.0010   -37.2080   -43.9730 ha         1 L7H       0.148000
     46 H56         -1.3120   -34.2280   -41.9020 ha         1 L7H       0.154000
     47 H34         -0.9850   -28.7120   -47.4330 ha         1 L7H       0.160000
     48 H43          3.8220   -27.8810   -43.8920 h1         1 L7H       0.058700
     49 H46          5.2010   -28.9760   -47.4220 h1         1 L7H       0.051200
     50 H47          6.6900   -29.3080   -46.5320 h1         1 L7H       0.051200
     51 H53          1.3540   -32.9930   -39.7690 hc         1 L7H       0.045700
     52 H51          2.6040   -32.2970   -40.7970 hc         1 L7H       0.045700
     53 H52          1.4220   -31.2450   -40.0070 hc         1 L7H       0.045700
     54 H58          4.0270   -35.2660   -43.8510 hn         1 L7H       0.396300
     55 H57          3.3540   -36.7450   -44.2300 hn         1 L7H       0.396300
     56 C13         -3.2230   -32.0410   -44.6900 c3         1 L7H      -0.134400
     57 H45          5.8560   -26.7730   -44.3530 h1         1 L7H       0.059200
     58 C15          0.4060   -27.0010   -48.6670 c3         1 L7H       0.119700
@<TRIPOS>BOND
     1     1     3 ar  
     2     1    21 ar  
     3     1    32 1   
     4     2     3 ar  
     5     2    13 ar  
     6     2    26 ar  
     7     3     4 ar  
     8     4     5 1   
     9     4    28 ar  
    10     5     8 1   
    11     5    33 1   
    12     6    14 1   
    13     6    31 1   
    14     6    40 1   
    15     6    57 1   
    16     7    14 1   
    17     7    15 1   
    18     7    41 1   
    19     7    42 1   
    20     8     9 1   
    21     8    17 1   
    22     8    43 1   
    23     9    10 ar  
    24     9    12 ar  
    25    10    18 ar  
    26    10    44 1   
    27    11    18 ar  
    28    11    19 ar  
    29    11    45 1   
    30    12    19 ar  
    31    12    46 1   
    32    13    16 ar  
    33    13    47 1   
    34    14    29 1   
    35    14    48 1   
    36    15    31 1   
    37    15    49 1   
    38    15    50 1   
    39    16    21 ar  
    40    16    30 1   
    41    17    51 1   
    42    17    52 1   
    43    17    53 1   
    44    18    27 1   
    45    19    20 1   
    46    20    23 1   
    47    20    24 1   
    48    20    25 1   
    49    21    29 1   
    50    22    26 ar  
    51    22    28 ar  
    52    22    56 1   
    53    27    54 1   
    54    27    55 1   
    55    30    58 1   
    56    34    56 1   
    57    35    56 1   
    58    36    56 1   
    59    37    58 1   
    60    38    58 1   
    61    39    58 1   
@<TRIPOS>SUBSTRUCTURE
     1 L7H         1 TEMP              0 ****  ****    0 ROOT
