@<TRIPOS>MOLECULE
L7H
   58    61     1     0     0
SMALL
No Charge or Current Charge


@<TRIPOS>ATOM
      1 C4           1.5160   -29.3150   -44.5710 ca         1 L7H      -0.153000
      2 C5          -0.6680   -29.7800   -45.5830 ca         1 L7H       0.076000
      3 C6           0.2590   -29.9660   -44.5320 ca         1 L7H      -0.178000
      4 C7          -0.1310   -30.8230   -43.4720 ca         1 L7H       0.410900
      5 N12          0.7040   -31.0950   -42.3880 nu         1 L7H      -0.933100
      6 C17          5.3550   -27.2860   -45.1280 c5         1 L7H       0.160600
      7 C20          4.6510   -29.6210   -45.2920 c5         1 L7H      -0.147400
      8 C21          0.6220   -32.2560   -41.4900 c3         1 L7H       0.290800
      9 C22          0.8490   -33.5520   -42.2770 ca         1 L7H      -0.063300
     10 C24          2.1060   -33.8550   -42.8430 ca         1 L7H      -0.147000
     11 C26          1.2210   -35.9260   -43.7510 ca         1 L7H      -0.127000
     12 C28         -0.2210   -34.4490   -42.4680 ca         1 L7H      -0.079000
     13 C1          -0.3320   -28.9430   -46.6570 ca         1 L7H      -0.187000
     14 C16          4.1210   -28.2140   -44.8630 c5         1 L7H       0.131300
     15 C19          5.6980   -29.2250   -46.3530 c5         1 L7H       0.160600
     16 C2           0.9190   -28.2900   -46.7060 ca         1 L7H       0.156100
     17 C23          1.6230   -32.0780   -40.3320 c3         1 L7H      -0.105100
     18 C25          2.2930   -35.0380   -43.5710 ca         1 L7H       0.286000
     19 C27         -0.0520   -35.6370   -43.2100 ca         1 L7H      -0.156300
     20 C29         -1.2380   -36.5910   -43.4020 c3         1 L7H       0.354300
     21 C3           1.8600   -28.4770   -45.6660 ca         1 L7H       0.109100
     22 C9          -2.1380   -31.1950   -44.5080 ca         1 L7H       0.188300
     23 F30         -2.3850   -35.9240   -43.6630 f          1 L7H      -0.115000
     24 F31         -1.0540   -37.4570   -44.4260 f          1 L7H      -0.115000
     25 F32         -1.4560   -37.3340   -42.2940 f          1 L7H      -0.115000
     26 N10         -1.8660   -30.4000   -45.5620 nb         1 L7H      -0.217000
     27 N33          3.5220   -35.3260   -44.1060 nv         1 L7H      -1.074000
     28 N8          -1.3290   -31.4310   -43.4620 nb         1 L7H      -0.292000
     29 O11          3.0750   -27.7920   -45.7870 os         1 L7H      -0.317100
     30 O14          1.2630   -27.4620   -47.7640 os         1 L7H      -0.316100
     31 O18          6.3740   -28.1310   -45.7150 os         1 L7H      -0.452000
     32 H35          2.2050   -29.4720   -43.7520 ha         1 L7H       0.107000
     33 H36          1.5960   -30.6110   -42.4110 hn         1 L7H       0.491000
     34 H39         -3.9950   -31.8150   -45.4630 hc         1 L7H       0.057700
     35 H37         -3.3730   -32.9610   -44.2680 hc         1 L7H       0.057700
     36 H38         -4.1440   -31.4570   -43.7360 hc         1 L7H       0.057700
     37 H40          0.8560   -26.5280   -49.5880 h1         1 L7H       0.045367
     38 H41          0.1390   -28.1410   -49.4000 h1         1 L7H       0.045367
     39 H42         -0.5530   -26.7450   -48.5300 h1         1 L7H       0.045367
     40 H44          5.1130   -26.4730   -45.8260 h1         1 L7H       0.059200
     41 H49          3.8830   -30.2870   -45.6970 hc         1 L7H       0.062200
     42 H48          5.1240   -30.1390   -44.4500 hc         1 L7H       0.062200
     43 H50         -0.3810   -32.2940   -41.0390 h1         1 L7H       0.085700
     44 H54          2.9370   -33.1660   -42.7210 ha         1 L7H       0.108000
     45 H55          1.3810   -36.8400   -44.3160 ha         1 L7H       0.130000
     46 H56         -1.1950   -34.2160   -42.0410 ha         1 L7H       0.136000
     47 H34         -1.0610   -28.8130   -47.4510 ha         1 L7H       0.142000
     48 H43          3.7860   -28.1370   -43.8210 h1         1 L7H       0.058700
     49 H46          5.2340   -28.8760   -47.2860 h1         1 L7H       0.051200
     50 H47          6.4090   -30.0310   -46.5820 h1         1 L7H       0.051200
     51 H53          1.5810   -32.9420   -39.6590 hc         1 L7H       0.045700
     52 H51          2.6510   -31.9770   -40.6980 hc         1 L7H       0.045700
     53 H52          1.3780   -31.1830   -39.7480 hc         1 L7H       0.045700
     54 H58          4.3270   -34.7500   -43.8700 hn         1 L7H       0.451500
     55 H57          3.6990   -36.2390   -44.5210 hn         1 L7H       0.451500
     56 C13         -3.4860   -31.8940   -44.4950 c3         1 L7H      -0.134400
     57 H45          5.7450   -26.8430   -44.2020 h1         1 L7H       0.059200
     58 C15          0.3800   -27.2100   -48.8720 c3         1 L7H       0.142900
@<TRIPOS>BOND
     1     1     3 ar  
     2     1    21 ar  
     3     1    32 1   
     4     2     3 ar  
     5     2    13 ar  
     6     2    26 ar  
     7     3     4 ar  
     8     4     5 1   
     9     4    28 ar  
    10     5     8 1   
    11     5    33 1   
    12     6    14 1   
    13     6    31 1   
    14     6    40 1   
    15     6    57 1   
    16     7    14 1   
    17     7    15 1   
    18     7    41 1   
    19     7    42 1   
    20     8     9 1   
    21     8    17 1   
    22     8    43 1   
    23     9    10 ar  
    24     9    12 ar  
    25    10    18 ar  
    26    10    44 1   
    27    11    18 ar  
    28    11    19 ar  
    29    11    45 1   
    30    12    19 ar  
    31    12    46 1   
    32    13    16 ar  
    33    13    47 1   
    34    14    29 1   
    35    14    48 1   
    36    15    31 1   
    37    15    49 1   
    38    15    50 1   
    39    16    21 ar  
    40    16    30 1   
    41    17    51 1   
    42    17    52 1   
    43    17    53 1   
    44    18    27 1   
    45    19    20 1   
    46    20    23 1   
    47    20    24 1   
    48    20    25 1   
    49    21    29 1   
    50    22    26 ar  
    51    22    28 ar  
    52    22    56 1   
    53    27    54 1   
    54    27    55 1   
    55    30    58 1   
    56    34    56 1   
    57    35    56 1   
    58    36    56 1   
    59    37    58 1   
    60    38    58 1   
    61    39    58 1   
@<TRIPOS>SUBSTRUCTURE
     1 L7H         1 TEMP              0 ****  ****    0 ROOT
