@<TRIPOS>MOLECULE
L7J
   47    50     1     0     0
SMALL
No Charge or Current Charge


@<TRIPOS>ATOM
      1 CAD          3.2610     0.2180    -0.5690 ca         1 L7J      -0.310500
      2 CAE          4.1040     0.0900     0.5510 ca         1 L7J       0.010000
      3 CAF          4.0420    -1.0690     1.3410 ca         1 L7J      -0.137000
      4 CAG          3.1390    -2.0980     1.0230 ca         1 L7J      -0.009000
      5 CAH          2.2870    -1.9770    -0.0960 ca         1 L7J      -0.217300
      6 CAI          1.3000    -3.0910    -0.4550 c3         1 L7J       0.358300
      7 CAM          2.3650    -0.8190    -0.8980 ca         1 L7J       0.040000
      8 CAO          3.4980     3.7320     0.3200 c5         1 L7J       0.207800
      9 CAP          2.6370     4.0110     1.6210 c5         1 L7J      -0.025100
     10 CAQ          1.3900     3.1780     1.3780 ca         1 L7J      -0.155300
     11 CAR          0.2970     3.0330     2.2450 ca         1 L7J      -0.035000
     12 CAS         -0.7720     2.2020     1.8570 ca         1 L7J      -0.214000
     13 CAT         -0.7410     1.5390     0.6060 ca         1 L7J       0.169100
     14 CAV         -2.8930     0.4010     1.0020 c3         1 L7J       0.205900
     15 CAW         -3.7490    -0.6240     0.2630 ca         1 L7J      -0.044300
     16 CAX         -4.7670    -0.2230    -0.6340 ca         1 L7J       0.083000
     17 CAZ         -5.5240    -1.2090    -1.3030 ca         1 L7J       0.347400
     18 CBB         -4.3470    -2.9230    -0.2830 ca         1 L7J       0.347400
     19 CBC         -3.5390    -2.0130     0.4310 ca         1 L7J       0.083000
     20 CBE          0.3560     1.7140    -0.2520 ca         1 L7J      -0.168000
     21 CBF          1.4210     2.5230     0.1660 ca         1 L7J       0.304000
     22 FAJ          0.1470    -2.6040    -0.9690 f          1 L7J      -0.110333
     23 FAK          1.8220    -3.9280    -1.3790 f          1 L7J      -0.110333
     24 FAL          0.9570    -3.8470     0.6130 f          1 L7J      -0.110333
     25 NAN          2.6170     2.8260    -0.4660 nh         1 L7J      -0.739300
     26 NBA         -5.3290    -2.5410    -1.1370 nb         1 L7J      -0.641000
     27 OAA          4.7170     2.1210    -1.7330 o          1 L7J      -0.523500
     28 OAC          2.4090     1.5930    -2.7070 o          1 L7J      -0.523500
     29 SAB          3.3150     1.7210    -1.5610 sy         1 L7J       1.172600
     30 ClA         -5.1050     1.4830    -0.9490 cl         1 L7J      -0.164500
     31 ClB         -2.2820    -2.6390     1.5050 cl         1 L7J      -0.164500
     32 H1           4.8020     0.8820     0.8150 ha         1 L7J       0.138000
     33 H2           4.6930    -1.1690     2.2050 ha         1 L7J       0.127000
     34 H3           3.1100    -2.9870     1.6500 ha         1 L7J       0.133000
     35 H4           1.7230    -0.7280    -1.7740 ha         1 L7J       0.156000
     36 H5           3.7070     4.6620    -0.2250 h1         1 L7J       0.061700
     37 H6           4.4560     3.2640     0.5850 h1         1 L7J       0.061700
     38 H7           3.1700     3.7010     2.5260 hc         1 L7J       0.063200
     39 H8           2.4050     5.0770     1.7240 hc         1 L7J       0.063200
     40 H9           0.2790     3.5470     3.2040 ha         1 L7J       0.117000
     41 H10         -1.6120     2.0880     2.5370 ha         1 L7J       0.122000
     42 H11         -3.4750     1.3080     1.2070 h1         1 L7J       0.058200
     43 H12         -2.5770    -0.0030     1.9710 h1         1 L7J       0.058200
     44 H13         -6.3110    -0.9200    -1.9970 h4         1 L7J       0.041600
     45 H14         -4.2010    -3.9970    -0.1670 h4         1 L7J       0.041600
     46 H15          0.3620     1.2220    -1.2160 ha         1 L7J       0.160000
     47 OAU         -1.7520     0.7040     0.1820 os         1 L7J      -0.330100
@<TRIPOS>BOND
     1     1     2 ar  
     2     1     7 ar  
     3     1    29 1   
     4     2     3 ar  
     5     2    32 1   
     6     3     4 ar  
     7     3    33 1   
     8     4     5 ar  
     9     4    34 1   
    10     5     6 1   
    11     5     7 ar  
    12     6    22 1   
    13     6    23 1   
    14     6    24 1   
    15     7    35 1   
    16     8     9 1   
    17     8    25 1   
    18     8    36 1   
    19     8    37 1   
    20     9    10 1   
    21     9    38 1   
    22     9    39 1   
    23    10    11 ar  
    24    10    21 ar  
    25    11    12 ar  
    26    11    40 1   
    27    12    13 ar  
    28    12    41 1   
    29    13    20 ar  
    30    13    47 1   
    31    14    15 1   
    32    14    42 1   
    33    14    43 1   
    34    14    47 1   
    35    15    16 ar  
    36    15    19 ar  
    37    16    17 ar  
    38    16    30 1   
    39    17    26 ar  
    40    17    44 1   
    41    18    19 ar  
    42    18    26 ar  
    43    18    45 1   
    44    19    31 1   
    45    20    21 ar  
    46    20    46 1   
    47    21    25 1   
    48    25    29 1   
    49    27    29 2   
    50    28    29 2   
@<TRIPOS>SUBSTRUCTURE
     1 L7J         1 TEMP              0 ****  ****    0 ROOT
