@<TRIPOS>MOLECULE
L7J
   47    50     1     0     0
SMALL
abcg2


@<TRIPOS>ATOM
      1 CAD          3.4640     0.1450    -0.6200 ca         1 L7J      -0.310500
      2 CAE          4.6360     0.0030     0.1110 ca         1 L7J       0.010000
      3 CAF          4.8410    -1.1630     0.8320 ca         1 L7J      -0.137000
      4 CAG          3.8930    -2.1720     0.8160 ca         1 L7J      -0.009000
      5 CAH          2.7310    -2.0220     0.0660 ca         1 L7J      -0.217300
      6 CAI          1.7020    -3.1120     0.0790 c3         1 L7J       0.358300
      7 CAM          2.5090    -0.8610    -0.6580 ca         1 L7J       0.040000
      8 CAO          3.3690     3.3210     0.6310 c5         1 L7J       0.207800
      9 CAP          2.4010     3.9290     1.6480 c5         1 L7J      -0.025100
     10 CAQ          1.1570     3.1180     1.4510 ca         1 L7J      -0.155300
     11 CAR          0.0210     3.0250     2.2230 ca         1 L7J      -0.035000
     12 CAS         -1.0580     2.2510     1.7970 ca         1 L7J      -0.214000
     13 CAT         -0.9840     1.5930     0.5750 ca         1 L7J       0.169100
     14 CAV         -3.1100     0.5860     0.8740 c3         1 L7J       0.205900
     15 CAW         -3.9540    -0.4080     0.1350 ca         1 L7J      -0.044300
     16 CAX         -5.1670    -0.0920    -0.4670 ca         1 L7J       0.083000
     17 CAZ         -5.8930    -1.0640    -1.1440 ca         1 L7J       0.347400
     18 CBB         -4.3210    -2.6470    -0.6950 ca         1 L7J       0.347400
     19 CBC         -3.5410    -1.7310    -0.0050 ca         1 L7J       0.083000
     20 CBE          0.1580     1.6830    -0.2280 ca         1 L7J      -0.168000
     21 CBF          1.2210     2.4320     0.2380 ca         1 L7J       0.304000
     22 FAJ          0.8560    -3.0250    -0.9490 f          1 L7J      -0.110333
     23 FAK          2.2600    -4.3260     0.0330 f          1 L7J      -0.110333
     24 FAL          0.9680    -3.0680     1.2000 f          1 L7J      -0.110333
     25 NAN          2.4760     2.6750    -0.3620 nh         1 L7J      -0.739300
     26 NBA         -5.4740    -2.3130    -1.2500 nb         1 L7J      -0.641000
     27 OAA          4.4380     2.2580    -1.8200 o          1 L7J      -0.523500
     28 OAC          2.1720     1.4140    -2.5130 o          1 L7J      -0.523500
     29 SAB          3.1600     1.6640    -1.4810 sy         1 L7J       1.172600
     30 CLA         -5.8160     1.5050    -0.4050 cl         1 L7J      -0.164500
     31 CLB         -2.0540    -2.2620     0.6790 cl         1 L7J      -0.164500
     32 H1           5.3930     0.7750     0.1150 ha         1 L7J       0.138000
     33 H2           5.7510    -1.2880     1.4010 ha         1 L7J       0.127000
     34 H3           4.0750    -3.0770     1.3820 ha         1 L7J       0.133000
     35 H4           1.6190    -0.7500    -1.2610 ha         1 L7J       0.156000
     36 H5           4.0010     4.0580     0.1460 h1         1 L7J       0.061700
     37 H6           4.0040     2.5760     1.1190 h1         1 L7J       0.061700
     38 H7           2.8020     3.8750     2.6590 hc         1 L7J       0.063200
     39 H8           2.2120     4.9810     1.4240 hc         1 L7J       0.063200
     40 H9          -0.0430     3.5520     3.1670 ha         1 L7J       0.117000
     41 H10         -1.9370     2.1910     2.4240 ha         1 L7J       0.122000
     42 H11         -3.6670     1.5040     1.0730 h1         1 L7J       0.058200
     43 H12         -2.8140     0.1650     1.8410 h1         1 L7J       0.058200
     44 H13         -6.8380    -0.8120    -1.6090 h4         1 L7J       0.041600
     45 H14         -3.9950    -3.6750    -0.7950 h4         1 L7J       0.041600
     46 H15          0.1660     1.1770    -1.1820 ha         1 L7J       0.160000
     47 OAU         -1.9820     0.8390     0.0620 os         1 L7J      -0.330100
@<TRIPOS>BOND
     1     1     2 ar  
     2     1     7 ar  
     3     1    29 1   
     4     2     3 ar  
     5     2    32 1   
     6     3     4 ar  
     7     3    33 1   
     8     4     5 ar  
     9     4    34 1   
    10     5     6 1   
    11     5     7 ar  
    12     6    22 1   
    13     6    23 1   
    14     6    24 1   
    15     7    35 1   
    16     8     9 1   
    17     8    25 1   
    18     8    36 1   
    19     8    37 1   
    20     9    10 1   
    21     9    38 1   
    22     9    39 1   
    23    10    11 ar  
    24    10    21 ar  
    25    11    12 ar  
    26    11    40 1   
    27    12    13 ar  
    28    12    41 1   
    29    13    20 ar  
    30    13    47 1   
    31    14    15 1   
    32    14    42 1   
    33    14    43 1   
    34    14    47 1   
    35    15    16 ar  
    36    15    19 ar  
    37    16    17 ar  
    38    16    30 1   
    39    17    26 ar  
    40    17    44 1   
    41    18    19 ar  
    42    18    26 ar  
    43    18    45 1   
    44    19    31 1   
    45    20    21 ar  
    46    20    46 1   
    47    21    25 1   
    48    25    29 1   
    49    27    29 2   
    50    28    29 2   
@<TRIPOS>SUBSTRUCTURE
     1 L7J         1 TEMP              0 ****  ****    0 ROOT
