@<TRIPOS>MOLECULE
L7K
   46    48     1     0     0
SMALL
No Charge or Current Charge


@<TRIPOS>ATOM
      1 N            1.3940     3.9460     9.5140 n8         1 L7K      -0.790000
      2 C            0.9090     6.4150     9.2130 c3         1 L7K       0.161200
      3 C1          -0.5460     6.3840     9.6810 cc         1 L7K       0.348800
      4 C10          1.5880     7.8190     9.3890 c6         1 L7K      -0.055700
      5 C11          0.7950     8.9630     8.6930 c6         1 L7K      -0.067400
      6 C12          1.3710    10.3670     9.0390 c6         1 L7K      -0.072900
      7 C13          2.8900    10.3450     9.3660 c6         1 L7K      -0.075400
      8 C14          3.6220     9.2460     8.5640 c6         1 L7K      -0.072900
      9 C15          3.0740     7.8260     8.8920 c6         1 L7K      -0.067400
     10 C3          -1.6560     6.6050     6.4830 c3         1 L7K      -0.046100
     11 C4          -2.8030     7.6060     6.6040 ca         1 L7K      -0.090300
     12 C5          -4.1420     7.1680     6.5540 ca         1 L7K      -0.098500
     13 C6          -5.1970     8.0900     6.6710 ca         1 L7K      -0.104000
     14 C7          -4.9210     9.4570     6.8350 ca         1 L7K      -0.102000
     15 C8          -3.5900     9.9020     6.8770 ca         1 L7K      -0.104000
     16 C9          -2.5350     8.9810     6.7590 ca         1 L7K      -0.098500
     17 N1           1.7140     5.3390     9.8750 n7         1 L7K      -0.635200
     18 N2          -0.9950     6.7280    10.8760 nd         1 L7K      -0.404000
     19 N3          -2.3560     6.5480    10.8490 nd         1 L7K      -0.051000
     20 N4          -2.7640     6.1010     9.6920 nc         1 L7K      -0.202800
     21 N5          -1.6380     5.9960     8.9420 na         1 L7K      -0.061700
     22 H1           2.2290     3.3410     9.4190 hn         1 L7K       0.402000
     23 H2           0.7490     3.4740    10.1710 hn         1 L7K       0.402000
     24 H3           0.9050     6.2250     8.1310 h1         1 L7K       0.078700
     25 H4           1.5870     8.0230    10.4700 hc         1 L7K       0.068700
     26 H5          -0.2670     8.9390     8.9710 hc         1 L7K       0.042450
     27 H6           0.8310     8.8140     7.6050 hc         1 L7K       0.042450
     28 H7           1.1820    11.0470     8.1970 hc         1 L7K       0.040200
     29 H8           0.8290    10.7900     9.8960 hc         1 L7K       0.040200
     30 H9           3.0360    10.1660    10.4410 hc         1 L7K       0.040200
     31 H10          3.3320    11.3280     9.1560 hc         1 L7K       0.040200
     32 H11          4.7020     9.2850     8.7630 hc         1 L7K       0.040200
     33 H12          3.5020     9.4470     7.4900 hc         1 L7K       0.040200
     34 H13          3.1770     7.1980     7.9960 hc         1 L7K       0.042450
     35 H14          3.7100     7.3630     9.6590 hc         1 L7K       0.042450
     36 H15         -2.5970     4.8920     7.4340 h1         1 L7K       0.081700
     37 H16         -0.8350     4.8170     7.4010 h1         1 L7K       0.081700
     38 H17         -1.6900     6.1320     5.4940 hc         1 L7K       0.059700
     39 H18         -0.6900     7.1200     6.5340 hc         1 L7K       0.059700
     40 H19         -4.3700     6.1120     6.4230 ha         1 L7K       0.108000
     41 H20         -6.2280     7.7440     6.6340 ha         1 L7K       0.113500
     42 H21         -5.7370    10.1710     6.9250 ha         1 L7K       0.114000
     43 H22         -3.3740    10.9620     6.9990 ha         1 L7K       0.113500
     44 H23         -1.5100     9.3410     6.7870 ha         1 L7K       0.108000
     45 H24          1.7770     5.5010    10.9000 hn         1 L7K       0.409000
     46 C2          -1.6860     5.4910     7.5570 c3         1 L7K       0.078600
@<TRIPOS>BOND
     1     1    17 1   
     2     1    22 1   
     3     1    23 1   
     4     2     3 1   
     5     2     4 1   
     6     2    17 1   
     7     2    24 1   
     8     3    18 2   
     9     3    21 1   
    10     4     5 1   
    11     4     9 1   
    12     4    25 1   
    13     5     6 1   
    14     5    26 1   
    15     5    27 1   
    16     6     7 1   
    17     6    28 1   
    18     6    29 1   
    19     7     8 1   
    20     7    30 1   
    21     7    31 1   
    22     8     9 1   
    23     8    32 1   
    24     8    33 1   
    25     9    34 1   
    26     9    35 1   
    27    10    11 1   
    28    10    38 1   
    29    10    39 1   
    30    10    46 1   
    31    11    12 ar  
    32    11    16 ar  
    33    12    13 ar  
    34    12    40 1   
    35    13    14 ar  
    36    13    41 1   
    37    14    15 ar  
    38    14    42 1   
    39    15    16 ar  
    40    15    43 1   
    41    16    44 1   
    42    17    45 1   
    43    18    19 1   
    44    19    20 2   
    45    20    21 1   
    46    21    46 1   
    47    36    46 1   
    48    37    46 1   
@<TRIPOS>SUBSTRUCTURE
     1 L7K         1 TEMP              0 ****  ****    0 ROOT
