@<TRIPOS>MOLECULE
L7K
   46    48     1     0     0
SMALL
bcc


@<TRIPOS>ATOM
      1 N            1.0410     4.1920     9.4760 n8         1 L7K      -0.679600
      2 C            0.9400     6.5250     9.1170 c3         1 L7K       0.161200
      3 C1          -0.5000     6.5700     9.5460 cc         1 L7K       0.348800
      4 C10          1.6450     7.8560     9.3920 c6         1 L7K      -0.055700
      5 C11          0.9650     9.0180     8.6720 c6         1 L7K      -0.067400
      6 C12          1.5570    10.3620     9.1130 c6         1 L7K      -0.072900
      7 C13          3.0660    10.2690     9.3860 c6         1 L7K      -0.075400
      8 C14          3.6900     9.1490     8.5640 c6         1 L7K      -0.072900
      9 C15          3.1280     7.7830     8.9780 c6         1 L7K      -0.067400
     10 C3          -1.6790     6.6240     6.4430 c3         1 L7K      -0.046100
     11 C4          -2.8670     7.5340     6.5940 ca         1 L7K      -0.090300
     12 C5          -4.1560     7.0620     6.3520 ca         1 L7K      -0.116500
     13 C6          -5.2570     7.8870     6.5210 ca         1 L7K      -0.122000
     14 C7          -5.0870     9.2030     6.9360 ca         1 L7K      -0.120000
     15 C8          -3.8090     9.6850     7.1740 ca         1 L7K      -0.122000
     16 C9          -2.7080     8.8530     7.0040 ca         1 L7K      -0.116500
     17 N1           1.6440     5.4330     9.7610 n7         1 L7K      -0.580000
     18 N2          -0.9490     6.9950    10.7050 nd         1 L7K      -0.404000
     19 N3          -2.2640     6.7900    10.6980 nd         1 L7K      -0.051000
     20 N4          -2.6380     6.2610     9.6010 nc         1 L7K      -0.202800
     21 N5          -1.5500     6.1070     8.8600 na         1 L7K      -0.032400
     22 H1           1.7590     3.4820     9.5090 hn         1 L7K       0.346800
     23 H2           0.3500     3.9430    10.1760 hn         1 L7K       0.346800
     24 H3           0.9780     6.3380     8.0390 h1         1 L7K       0.078700
     25 H4           1.5800     8.0480    10.4700 hc         1 L7K       0.068700
     26 H5          -0.1100     9.0230     8.8610 hc         1 L7K       0.042450
     27 H6           1.0850     8.8850     7.5910 hc         1 L7K       0.042450
     28 H7           1.3610    11.1060     8.3370 hc         1 L7K       0.040200
     29 H8           1.0390    10.7100    10.0100 hc         1 L7K       0.040200
     30 H9           3.2470    10.0750    10.4470 hc         1 L7K       0.040200
     31 H10          3.5490    11.2240     9.1670 hc         1 L7K       0.040200
     32 H11          4.7770     9.1480     8.6740 hc         1 L7K       0.040200
     33 H12          3.4940     9.3310     7.5030 hc         1 L7K       0.040200
     34 H13          3.2420     7.0780     8.1500 hc         1 L7K       0.042450
     35 H14          3.7180     7.3790     9.8030 hc         1 L7K       0.042450
     36 H15         -2.4980     4.9110     7.4920 h1         1 L7K       0.081700
     37 H16         -0.7450     4.9070     7.3890 h1         1 L7K       0.081700
     38 H17         -1.7120     6.1050     5.4820 hc         1 L7K       0.059700
     39 H18         -0.7550     7.2080     6.4460 hc         1 L7K       0.059700
     40 H19         -4.3030     6.0380     6.0260 ha         1 L7K       0.126000
     41 H20         -6.2510     7.5040     6.3260 ha         1 L7K       0.131500
     42 H21         -5.9470     9.8480     7.0670 ha         1 L7K       0.132000
     43 H22         -3.6630    10.7090     7.4920 ha         1 L7K       0.131500
     44 H23         -1.7140     9.2430     7.1840 ha         1 L7K       0.126000
     45 H24          1.7000     5.6040    10.7600 hn         1 L7K       0.353800
     46 C2          -1.6160     5.5470     7.5230 c3         1 L7K       0.049300
@<TRIPOS>BOND
     1     1    17 1   
     2     1    22 1   
     3     1    23 1   
     4     2     3 1   
     5     2     4 1   
     6     2    17 1   
     7     2    24 1   
     8     3    18 2   
     9     3    21 1   
    10     4     5 1   
    11     4     9 1   
    12     4    25 1   
    13     5     6 1   
    14     5    26 1   
    15     5    27 1   
    16     6     7 1   
    17     6    28 1   
    18     6    29 1   
    19     7     8 1   
    20     7    30 1   
    21     7    31 1   
    22     8     9 1   
    23     8    32 1   
    24     8    33 1   
    25     9    34 1   
    26     9    35 1   
    27    10    11 1   
    28    10    38 1   
    29    10    39 1   
    30    10    46 1   
    31    11    12 ar  
    32    11    16 ar  
    33    12    13 ar  
    34    12    40 1   
    35    13    14 ar  
    36    13    41 1   
    37    14    15 ar  
    38    14    42 1   
    39    15    16 ar  
    40    15    43 1   
    41    16    44 1   
    42    17    45 1   
    43    18    19 1   
    44    19    20 2   
    45    20    21 1   
    46    21    46 1   
    47    36    46 1   
    48    37    46 1   
@<TRIPOS>SUBSTRUCTURE
     1 L7K         1 TEMP              0 ****  ****    0 ROOT
