@<TRIPOS>MOLECULE
L7M
   83    87     1     0     0
SMALL
abcg2


@<TRIPOS>ATOM
      1 CAA        -45.3760   -21.1200    32.2400 cc         1 L7M      -0.155400
      2 CAB        -46.2690   -19.9580    32.5350 c3         1 L7M      -0.083200
      3 CAC        -45.8260   -18.7420    31.7350 c          1 L7M       0.600100
      4 CAE        -45.5010   -22.0170    31.2250 cd         1 L7M       0.049400
      5 CAG        -43.5880   -22.5390    32.3390 ca         1 L7M      -0.118000
      6 CAH        -44.1770   -21.4380    32.9640 ca         1 L7M      -0.039800
      7 CAI        -44.2090   -23.9580    30.3890 c          1 L7M       0.640700
      8 CAJ        -42.4490   -23.1360    32.8750 ca         1 L7M      -0.076000
      9 CAK        -41.8910   -22.5760    34.0060 ca         1 L7M      -0.128000
     10 CAL        -42.4560   -21.4470    34.6240 ca         1 L7M       0.127100
     11 CAM        -43.6100   -20.8770    34.1120 ca         1 L7M      -0.172000
     12 CAP        -42.8080   -24.2670    30.0150 ca         1 L7M      -0.165600
     13 CAQ        -41.8890   -23.2500    29.7690 ca         1 L7M      -0.052000
     14 CAR        -40.6080   -23.5530    29.3380 ca         1 L7M      -0.116000
     15 CAS        -40.2500   -24.8840    29.1740 ca         1 L7M       0.142000
     16 CAT        -41.1530   -25.9100    29.4110 ca         1 L7M      -0.116000
     17 CAU        -42.4380   -25.5940    29.8160 ca         1 L7M      -0.052000
     18 CAW        -44.5180   -16.6650    31.7870 c3         1 L7M       0.104000
     19 CAX        -45.5070   -15.5050    31.8150 c3         1 L7M      -0.099400
     20 CAY        -45.8280   -15.0360    33.2270 c3         1 L7M      -0.073400
     21 CAZ        -46.8300   -13.8960    33.2880 c3         1 L7M       0.200800
     22 CBC        -49.5020   -12.3630    34.1180 ca         1 L7M      -0.305500
     23 CBF        -49.8710   -13.0370    35.3210 ca         1 L7M       0.056000
     24 CBG        -49.8580   -12.2770    36.5250 ca         1 L7M      -0.067000
     25 CBH        -49.6120   -10.8860    36.4620 ca         1 L7M      -0.027000
     26 CBI        -49.3060   -10.2700    35.2820 ca         1 L7M      -0.153000
     27 CBJ        -49.2150   -11.0230    34.1010 ca         1 L7M       0.016000
     28 CBK        -50.2620   -14.3960    35.3810 ca         1 L7M      -0.159000
     29 CBL        -50.5980   -14.9590    36.5810 ca         1 L7M      -0.057000
     30 CBM        -50.5260   -14.2330    37.7790 ca         1 L7M      -0.173000
     31 CBN        -50.1420   -12.9120    37.7770 ca         1 L7M       0.292000
     32 CBP        -46.5500   -22.0710    30.1740 c3         1 L7M      -0.047900
     33 CBR        -42.3370   -19.8840    36.4040 c3         1 L7M       0.149900
     34 CBS        -48.6830   -11.8230    39.3550 c3         1 L7M       0.171600
     35 CBT        -50.8420   -12.5850    40.0750 c3         1 L7M       0.171600
     36 NAD        -45.0380   -17.8750    32.3910 ns         1 L7M      -0.507900
     37 NAF        -44.4010   -22.8850    31.2540 n          1 L7M      -0.102600
     38 NBA        -48.1330   -14.3500    32.8030 n7         1 L7M      -0.866300
     39 NBO        -50.0430   -12.1510    38.9490 nh         1 L7M      -0.780400
     40 OAN        -46.1380   -18.6050    30.5610 o          1 L7M      -0.601100
     41 OAO        -45.1400   -24.5790    29.9320 o          1 L7M      -0.519100
     42 OBD        -50.5420   -13.9900    32.2960 o          1 L7M      -0.533000
     43 OBE        -48.8440   -12.2880    31.5930 o          1 L7M      -0.533000
     44 OBQ        -41.8090   -21.0010    35.7210 os         1 L7M      -0.340100
     45 SBB        -49.3270   -13.2410    32.5780 sy         1 L7M       1.145600
     46 CLAV       -38.6470   -25.2700    28.6580 cl         1 L7M      -0.189000
     47 H1         -46.2650   -19.7500    33.6080 hc         1 L7M       0.063700
     48 H2         -47.3020   -20.1800    32.2660 hc         1 L7M       0.063700
     49 H3         -41.9960   -24.0180    32.4470 ha         1 L7M       0.127000
     50 H4         -41.0020   -23.0190    34.4360 ha         1 L7M       0.130000
     51 H5         -44.0870   -20.0350    34.5940 ha         1 L7M       0.111000
     52 H6         -42.1660   -22.2120    29.8960 ha         1 L7M       0.136000
     53 H7         -39.9000   -22.7620    29.1360 ha         1 L7M       0.136500
     54 H8         -40.8600   -26.9420    29.2780 ha         1 L7M       0.136500
     55 H9         -43.1480   -26.3910    29.9940 ha         1 L7M       0.136000
     56 H10        -44.2290   -16.8830    30.7590 h1         1 L7M       0.053700
     57 H11        -43.6060   -16.3980    32.3230 h1         1 L7M       0.053700
     58 H12        -45.0760   -14.6750    31.2480 hc         1 L7M       0.065700
     59 H13        -46.4190   -15.7990    31.2910 hc         1 L7M       0.065700
     60 H14        -46.2010   -15.8680    33.8330 hc         1 L7M       0.036700
     61 H15        -44.9130   -14.6910    33.7170 hc         1 L7M       0.036700
     62 H16        -46.4960   -13.0690    32.6600 h1         1 L7M       0.052200
     63 H17        -46.8970   -13.5230    34.3150 h1         1 L7M       0.052200
     64 H18        -49.6890   -10.2970    37.3650 ha         1 L7M       0.131000
     65 H19        -49.1300    -9.2040    35.2490 ha         1 L7M       0.122000
     66 H20        -48.9320   -10.5310    33.1820 ha         1 L7M       0.145000
     67 H21        -50.3530   -14.9960    34.4890 ha         1 L7M       0.127000
     68 H22        -50.9080   -15.9950    36.6120 ha         1 L7M       0.117000
     69 H23        -50.7610   -14.7360    38.7070 ha         1 L7M       0.119000
     70 H24        -47.1750   -22.9590    30.2560 hc         1 L7M       0.065033
     71 H25        -47.1850   -21.1940    30.2610 hc         1 L7M       0.065033
     72 H26        -46.1210   -22.0590    29.1720 hc         1 L7M       0.065033
     73 H27        -41.6750   -19.6910    37.2440 h1         1 L7M       0.038033
     74 H28        -42.3660   -18.9920    35.7710 h1         1 L7M       0.038033
     75 H29        -43.3430   -20.0750    36.7880 h1         1 L7M       0.038033
     76 H30        -48.7050   -11.0230    40.0960 h1         1 L7M       0.037533
     77 H31        -48.1680   -12.6850    39.7980 h1         1 L7M       0.037533
     78 H32        -48.0880   -11.4790    38.5120 h1         1 L7M       0.037533
     79 H33        -50.8630   -11.7890    40.8190 h1         1 L7M       0.037533
     80 H34        -51.8670   -12.7770    39.7600 h1         1 L7M       0.037533
     81 H35        -50.4580   -13.4870    40.5710 h1         1 L7M       0.037533
     82 H36        -44.8500   -18.0360    33.3650 hn         1 L7M       0.306500
     83 H37        -48.4670   -15.1910    33.2620 hn         1 L7M       0.481000
@<TRIPOS>BOND
     1     1     2 1   
     2     1     4 2   
     3     1     6 1   
     4     2     3 1   
     5     2    47 1   
     6     2    48 1   
     7     3    36 1   
     8     3    40 2   
     9     4    32 1   
    10     4    37 1   
    11     5     6 ar  
    12     5     8 ar  
    13     5    37 1   
    14     6    11 ar  
    15     7    12 1   
    16     7    37 1   
    17     7    41 2   
    18     8     9 ar  
    19     8    49 1   
    20     9    10 ar  
    21     9    50 1   
    22    10    11 ar  
    23    10    44 1   
    24    11    51 1   
    25    12    13 ar  
    26    12    17 ar  
    27    13    14 ar  
    28    13    52 1   
    29    14    15 ar  
    30    14    53 1   
    31    15    16 ar  
    32    15    46 1   
    33    16    17 ar  
    34    16    54 1   
    35    17    55 1   
    36    18    19 1   
    37    18    36 1   
    38    18    56 1   
    39    18    57 1   
    40    19    20 1   
    41    19    58 1   
    42    19    59 1   
    43    20    21 1   
    44    20    60 1   
    45    20    61 1   
    46    21    38 1   
    47    21    62 1   
    48    21    63 1   
    49    22    23 ar  
    50    22    27 ar  
    51    22    45 1   
    52    23    24 ar  
    53    23    28 ar  
    54    24    25 ar  
    55    24    31 ar  
    56    25    26 ar  
    57    25    64 1   
    58    26    27 ar  
    59    26    65 1   
    60    27    66 1   
    61    28    29 ar  
    62    28    67 1   
    63    29    30 ar  
    64    29    68 1   
    65    30    31 ar  
    66    30    69 1   
    67    31    39 1   
    68    32    70 1   
    69    32    71 1   
    70    32    72 1   
    71    33    44 1   
    72    33    73 1   
    73    33    74 1   
    74    33    75 1   
    75    34    39 1   
    76    34    76 1   
    77    34    77 1   
    78    34    78 1   
    79    35    39 1   
    80    35    79 1   
    81    35    80 1   
    82    35    81 1   
    83    36    82 1   
    84    38    45 1   
    85    38    83 1   
    86    42    45 2   
    87    43    45 2   
@<TRIPOS>SUBSTRUCTURE
     1 L7M         1 TEMP              0 ****  ****    0 ROOT
