@<TRIPOS>MOLECULE
L7M
   83    87     1     0     0
SMALL
No Charge or Current Charge


@<TRIPOS>ATOM
      1 CAA        -45.0280   -21.2840    32.0100 cc         1 L7M      -0.155400
      2 CAB        -45.9750   -20.1840    32.4400 c3         1 L7M      -0.083200
      3 CAC        -45.5730   -18.8000    31.9140 c          1 L7M       0.600100
      4 CAE        -45.0940   -22.1150    30.8970 cd         1 L7M       0.049400
      5 CAG        -43.2580   -22.7450    32.0030 ca         1 L7M      -0.118000
      6 CAH        -43.8390   -21.7110    32.7040 ca         1 L7M      -0.039800
      7 CAI        -43.8840   -24.1120    29.9280 c          1 L7M       0.640700
      8 CAJ        -42.1380   -23.4220    32.5180 ca         1 L7M      -0.076000
      9 CAK        -41.5880   -22.9770    33.7370 ca         1 L7M      -0.128000
     10 CAL        -42.1600   -21.8930    34.4370 ca         1 L7M       0.127100
     11 CAM        -43.3130   -21.2530    33.9210 ca         1 L7M      -0.172000
     12 CAP        -42.4960   -24.4880    29.4470 ca         1 L7M      -0.165600
     13 CAQ        -41.4380   -23.5470    29.4310 ca         1 L7M      -0.052000
     14 CAR        -40.1650   -23.9160    28.9630 ca         1 L7M      -0.116000
     15 CAS        -39.9370   -25.2180    28.4930 ca         1 L7M       0.142000
     16 CAT        -40.9830   -26.1520    28.4820 ca         1 L7M      -0.116000
     17 CAU        -42.2580   -25.7890    28.9500 ca         1 L7M      -0.052000
     18 CAW        -44.5230   -16.6040    32.5730 c3         1 L7M       0.104000
     19 CAX        -45.6870   -15.5900    32.5720 c3         1 L7M      -0.099400
     20 CAY        -46.4440   -15.5030    33.9230 c3         1 L7M      -0.073400
     21 CAZ        -47.5410   -14.4180    33.9610 c3         1 L7M       0.200800
     22 CBC        -49.7460   -12.5350    34.1930 ca         1 L7M      -0.305500
     23 CBF        -50.0730   -12.8760    35.5440 ca         1 L7M       0.056000
     24 CBG        -49.9630   -11.8850    36.5630 ca         1 L7M      -0.067000
     25 CBH        -49.5410   -10.5800    36.2240 ca         1 L7M      -0.027000
     26 CBI        -49.2100   -10.2590    34.9040 ca         1 L7M      -0.153000
     27 CBJ        -49.3080   -11.2250    33.8980 ca         1 L7M       0.016000
     28 CBK        -50.4870   -14.1770    35.9230 ca         1 L7M      -0.159000
     29 CBL        -50.8060   -14.4810    37.2530 ca         1 L7M      -0.057000
     30 CBM        -50.7080   -13.4960    38.2390 ca         1 L7M      -0.173000
     31 CBN        -50.2820   -12.2010    37.9120 ca         1 L7M       0.292000
     32 CBP        -46.1800   -22.0370    29.8460 c3         1 L7M      -0.047900
     33 CBR        -42.0760   -20.4190    36.4140 c3         1 L7M       0.149900
     34 CBS        -48.8390   -10.8920    39.4920 c3         1 L7M       0.171600
     35 CBT        -51.3390   -10.9330    39.8040 c3         1 L7M       0.171600
     36 NAD        -44.9650   -17.9760    32.8380 ns         1 L7M      -0.507900
     37 NAF        -44.0040   -23.0060    30.8060 n          1 L7M      -0.102600
     38 NBA        -48.6100   -14.7340    32.9980 n7         1 L7M      -0.866300
     39 NBO        -50.1690   -11.2550    38.9600 nh         1 L7M      -0.780400
     40 OAN        -45.7640   -18.4530    30.7560 o          1 L7M      -0.601100
     41 OAO        -44.8690   -24.6870    29.4760 o          1 L7M      -0.519100
     42 OBD        -51.0730   -14.4990    32.9250 o          1 L7M      -0.533000
     43 OBE        -49.5900   -12.9680    31.5210 o          1 L7M      -0.533000
     44 OBQ        -41.5710   -21.5110    35.6260 os         1 L7M      -0.340100
     45 SBB        -49.8780   -13.6690    32.7760 sy         1 L7M       1.145600
     46 ClAV       -38.3430   -25.6740    27.9060 cl         1 L7M      -0.189000
     47 H1         -46.0020   -20.1620    33.5350 hc         1 L7M       0.063700
     48 H2         -46.9830   -20.4120    32.0760 hc         1 L7M       0.063700
     49 H3         -41.6970   -24.2740    32.0060 ha         1 L7M       0.127000
     50 H4         -40.7150   -23.4780    34.1480 ha         1 L7M       0.130000
     51 H5         -43.7970   -20.4370    34.4470 ha         1 L7M       0.111000
     52 H6         -41.5940   -22.5250    29.7730 ha         1 L7M       0.136000
     53 H7         -39.3550   -23.1900    28.9590 ha         1 L7M       0.136500
     54 H8         -40.8060   -27.1580    28.1100 ha         1 L7M       0.136500
     55 H9         -43.0590   -26.5270    28.9340 ha         1 L7M       0.136000
     56 H10        -44.0130   -16.5760    31.6010 h1         1 L7M       0.053700
     57 H11        -43.7910   -16.3190    33.3410 h1         1 L7M       0.053700
     58 H12        -45.2840   -14.6010    32.3230 hc         1 L7M       0.065700
     59 H13        -46.3900   -15.8520    31.7720 hc         1 L7M       0.065700
     60 H14        -46.8920   -16.4750    34.1620 hc         1 L7M       0.036700
     61 H15        -45.7210   -15.2860    34.7190 hc         1 L7M       0.036700
     62 H16        -47.0840   -13.4460    33.7290 h1         1 L7M       0.052200
     63 H17        -47.9300   -14.3670    34.9860 h1         1 L7M       0.052200
     64 H18        -49.4650    -9.8020    36.9790 ha         1 L7M       0.131000
     65 H19        -48.8810    -9.2530    34.6580 ha         1 L7M       0.122000
     66 H20        -49.0480   -10.9370    32.8810 ha         1 L7M       0.145000
     67 H21        -50.5580   -14.9890    35.2110 ha         1 L7M       0.127000
     68 H22        -51.1220   -15.4870    37.5200 ha         1 L7M       0.117000
     69 H23        -50.9470   -13.7440    39.2690 ha         1 L7M       0.119000
     70 H24        -46.9630   -22.7790    30.0380 hc         1 L7M       0.065033
     71 H25        -46.6540   -21.0500    29.8210 hc         1 L7M       0.065033
     72 H26        -45.7790   -22.2180    28.8420 hc         1 L7M       0.065033
     73 H27        -41.4590   -20.2810    37.3110 h1         1 L7M       0.038033
     74 H28        -42.0570   -19.4830    35.8410 h1         1 L7M       0.038033
     75 H29        -43.1070   -20.6140    36.7370 h1         1 L7M       0.038033
     76 H30        -48.7600    -9.8040    39.6190 h1         1 L7M       0.037533
     77 H31        -48.6670   -11.3760    40.4630 h1         1 L7M       0.037533
     78 H32        -48.0460   -11.2120    38.8030 h1         1 L7M       0.037533
     79 H33        -51.3060    -9.8830    40.1210 h1         1 L7M       0.037533
     80 H34        -52.2710   -11.0870    39.2440 h1         1 L7M       0.037533
     81 H35        -51.3570   -11.5710    40.6980 h1         1 L7M       0.037533
     82 H36        -44.8380   -18.3510    33.7690 hn         1 L7M       0.306500
     83 H37        -49.1050   -15.5750    33.2860 hn         1 L7M       0.481000
@<TRIPOS>BOND
     1     1     2 1   
     2     1     4 2   
     3     1     6 1   
     4     2     3 1   
     5     2    47 1   
     6     2    48 1   
     7     3    36 1   
     8     3    40 2   
     9     4    32 1   
    10     4    37 1   
    11     5     6 ar  
    12     5     8 ar  
    13     5    37 1   
    14     6    11 ar  
    15     7    12 1   
    16     7    37 1   
    17     7    41 2   
    18     8     9 ar  
    19     8    49 1   
    20     9    10 ar  
    21     9    50 1   
    22    10    11 ar  
    23    10    44 1   
    24    11    51 1   
    25    12    13 ar  
    26    12    17 ar  
    27    13    14 ar  
    28    13    52 1   
    29    14    15 ar  
    30    14    53 1   
    31    15    16 ar  
    32    15    46 1   
    33    16    17 ar  
    34    16    54 1   
    35    17    55 1   
    36    18    19 1   
    37    18    36 1   
    38    18    56 1   
    39    18    57 1   
    40    19    20 1   
    41    19    58 1   
    42    19    59 1   
    43    20    21 1   
    44    20    60 1   
    45    20    61 1   
    46    21    38 1   
    47    21    62 1   
    48    21    63 1   
    49    22    23 ar  
    50    22    27 ar  
    51    22    45 1   
    52    23    24 ar  
    53    23    28 ar  
    54    24    25 ar  
    55    24    31 ar  
    56    25    26 ar  
    57    25    64 1   
    58    26    27 ar  
    59    26    65 1   
    60    27    66 1   
    61    28    29 ar  
    62    28    67 1   
    63    29    30 ar  
    64    29    68 1   
    65    30    31 ar  
    66    30    69 1   
    67    31    39 1   
    68    32    70 1   
    69    32    71 1   
    70    32    72 1   
    71    33    44 1   
    72    33    73 1   
    73    33    74 1   
    74    33    75 1   
    75    34    39 1   
    76    34    76 1   
    77    34    77 1   
    78    34    78 1   
    79    35    39 1   
    80    35    79 1   
    81    35    80 1   
    82    35    81 1   
    83    36    82 1   
    84    38    45 1   
    85    38    83 1   
    86    42    45 2   
    87    43    45 2   
@<TRIPOS>SUBSTRUCTURE
     1 L7M         1 TEMP              0 ****  ****    0 ROOT
