@<TRIPOS>MOLECULE
L7O
   54    57     1     0     0
SMALL
No Charge or Current Charge


@<TRIPOS>ATOM
      1 C1          28.7790    51.3610    14.5450 c6         1 L7O       0.208300
      2 N1          29.6330    50.1690    14.8150 nh         1 L7O      -0.804400
      3 O1          36.5830    47.5710    11.4740 o          1 L7O      -0.585000
      4 C2          27.5310    51.3720    15.4620 c6         1 L7O      -0.083900
      5 N2          35.9370    49.6480    13.1770 ns         1 L7O      -0.401100
      6 O2          35.9720    51.4370    14.6130 o          1 L7O      -0.607100
      7 C3          26.7340    50.0520    15.3400 c6         1 L7O      -0.075400
      8 N3          38.7650    48.1560    11.4320 ns         1 L7O      -0.348100
      9 C4          27.6610    48.8450    15.6170 c6         1 L7O      -0.083900
     10 C5          28.9100    48.8700    14.7020 c6         1 L7O       0.208300
     11 N5          42.9880    52.5300    13.5490 nb         1 L7O      -0.249000
     12 C6          33.0790    49.4430    13.5380 ca         1 L7O      -0.025500
     13 N6          41.8740    50.8980    12.1820 nb         1 L7O      -0.279000
     14 C8          39.8380    48.9510    11.8010 cc         1 L7O      -0.017400
     15 C9          39.6770    50.0140    12.6780 cd         1 L7O      -0.236800
     16 C10         38.3320    50.2900    13.1550 cd         1 L7O      -0.132000
     17 C11         37.2730    49.4760    12.7680 cc         1 L7O      -0.055600
     18 C12         37.4750    48.3220    11.8480 c          1 L7O       0.531200
     19 C13         41.9450    52.5200    14.3990 ca         1 L7O       0.152900
     20 C14         42.8960    51.7180    12.4850 ca         1 L7O       0.388900
     21 C15         40.8300    50.8710    13.0380 ca         1 L7O       0.246800
     22 C16         40.8260    51.7020    14.1760 ca         1 L7O      -0.275000
     23 C17         33.8430    50.4290    14.2100 ca         1 L7O      -0.205600
     24 C18         33.1710    51.3170    15.0800 ca         1 L7O      -0.025500
     25 C19         31.7820    51.2220    15.2710 ca         1 L7O      -0.193000
     26 C20         31.0290    50.2440    14.6050 ca         1 L7O       0.348000
     27 C21         31.6910    49.3570    13.7380 ca         1 L7O      -0.193000
     28 C22         44.1500    50.9740    10.3740 c3         1 L7O       0.236100
     29 H1          29.3410    52.2920    14.7040 h1         1 L7O       0.041200
     30 H1A         28.4550    51.3550    13.4930 h1         1 L7O       0.041200
     31 H2          27.8460    51.5210    16.5040 hc         1 L7O       0.050700
     32 H2A         26.8890    52.2250    15.2040 hc         1 L7O       0.050700
     33 H3          25.8910    50.0520    16.0450 hc         1 L7O       0.043200
     34 H3A         26.3040    49.9680    14.3320 hc         1 L7O       0.043200
     35 H4          27.9790    48.8580    16.6680 hc         1 L7O       0.050700
     36 H4A         27.1110    47.9060    15.4690 hc         1 L7O       0.050700
     37 HN4         44.7310    52.3860    11.8850 hn         1 L7O       0.509000
     38 H5          28.6020    48.7010    13.6600 h1         1 L7O       0.041200
     39 H5A         29.5690    48.0380    14.9920 h1         1 L7O       0.041200
     40 H6          33.5370    48.7340    12.8520 ha         1 L7O       0.123500
     41 H8          40.7750    48.6390    11.3440 h4         1 L7O       0.227000
     42 H10         38.1650    51.1420    13.8030 ha         1 L7O       0.228000
     43 H13         42.0060    53.1760    15.2660 h4         1 L7O       0.022100
     44 H16         40.0040    51.7060    14.8830 ha         1 L7O       0.143000
     45 H18         33.7220    52.0870    15.6160 ha         1 L7O       0.123500
     46 H19         31.2900    51.9090    15.9530 ha         1 L7O       0.117500
     47 H21         31.1290    48.5990    13.2000 ha         1 L7O       0.117500
     48 H22         45.1130    51.2120     9.9030 h1         1 L7O       0.038700
     49 H22A        44.1260    49.8960    10.5840 h1         1 L7O       0.038700
     50 H22B        43.3490    51.2080     9.6600 h1         1 L7O       0.038700
     51 HN2         35.2780    48.9850    12.7920 hn         1 L7O       0.343500
     52 HN3         38.9120    47.3780    10.7990 hn         1 L7O       0.333500
     53 C7          35.3430    50.5650    14.0300 c          1 L7O       0.631700
     54 N4          43.9780    51.7480    11.6180 nu         1 L7O      -0.935100
@<TRIPOS>BOND
     1     1     2 1   
     2     1     4 1   
     3     1    29 1   
     4     1    30 1   
     5     2    10 1   
     6     2    26 1   
     7     3    18 2   
     8     4     7 1   
     9     4    31 1   
    10     4    32 1   
    11     5    17 1   
    12     5    51 1   
    13     5    53 1   
    14     6    53 2   
    15     7     9 1   
    16     7    33 1   
    17     7    34 1   
    18     8    14 1   
    19     8    18 1   
    20     8    52 1   
    21     9    10 1   
    22     9    35 1   
    23     9    36 1   
    24    10    38 1   
    25    10    39 1   
    26    11    19 ar  
    27    11    20 ar  
    28    12    23 ar  
    29    12    27 ar  
    30    12    40 1   
    31    13    20 ar  
    32    13    21 ar  
    33    14    15 2   
    34    14    41 1   
    35    15    16 1   
    36    15    21 1   
    37    16    17 2   
    38    16    42 1   
    39    17    18 1   
    40    19    22 ar  
    41    19    43 1   
    42    20    54 1   
    43    21    22 ar  
    44    22    44 1   
    45    23    24 ar  
    46    23    53 1   
    47    24    25 ar  
    48    24    45 1   
    49    25    26 ar  
    50    25    46 1   
    51    26    27 ar  
    52    27    47 1   
    53    28    48 1   
    54    28    49 1   
    55    28    50 1   
    56    28    54 1   
    57    37    54 1   
@<TRIPOS>SUBSTRUCTURE
     1 L7O         1 TEMP              0 ****  ****    0 ROOT
