@<TRIPOS>MOLECULE
L7O
   54    57     1     0     0
SMALL
abcg2


@<TRIPOS>ATOM
      1 C1          28.8860    51.3410    14.9170 c6         1 L7O       0.208300
      2 N1          29.7130    50.1290    14.9790 nh         1 L7O      -0.804400
      3 O1          36.5190    47.7820    11.2040 o          1 L7O      -0.585000
      4 C2          27.6370    51.2250    15.7800 c6         1 L7O      -0.083900
      5 N2          35.8600    49.7180    12.9470 ns         1 L7O      -0.401100
      6 O2          35.9470    51.4830    14.3770 o          1 L7O      -0.607100
      7 C3          26.8280    49.9880    15.4020 c6         1 L7O      -0.075400
      8 N3          38.7150    48.4030    11.1920 ns         1 L7O      -0.348100
      9 C4          27.7200    48.7540    15.4750 c6         1 L7O      -0.083900
     10 C5          28.9820    48.9110    14.6300 c6         1 L7O       0.208300
     11 N5          42.8730    52.5650    13.5850 nb         1 L7O      -0.249000
     12 C6          33.1000    49.2920    13.7160 ca         1 L7O      -0.025500
     13 N6          41.8370    50.8820    12.2320 nb         1 L7O      -0.279000
     14 C8          39.7490    49.1870    11.5810 cc         1 L7O      -0.017400
     15 C9          39.5460    50.2110    12.4640 cd         1 L7O      -0.236800
     16 C10         38.2260    50.4210    12.9530 cd         1 L7O      -0.132000
     17 C11         37.1890    49.6240    12.5530 cc         1 L7O      -0.055600
     18 C12         37.4120    48.5370    11.6120 c          1 L7O       0.531200
     19 C13         41.7180    52.7170    14.2200 ca         1 L7O       0.152900
     20 C14         42.8840    51.6300    12.6060 ca         1 L7O       0.388900
     21 C15         40.6800    51.0530    12.8870 ca         1 L7O       0.246800
     22 C16         40.5760    51.9850    13.9210 ca         1 L7O      -0.275000
     23 C17         33.8440    50.4130    14.0930 ca         1 L7O      -0.205600
     24 C18         33.1660    51.4320    14.7770 ca         1 L7O      -0.025500
     25 C19         31.8190    51.3500    15.0530 ca         1 L7O      -0.193000
     26 C20         31.0580    50.2220    14.6680 ca         1 L7O       0.348000
     27 C21         31.7460    49.1950    13.9890 ca         1 L7O      -0.193000
     28 C22         44.2430    50.5290    10.8600 c3         1 L7O       0.236100
     29 H1          29.4700    52.1990    15.2320 h1         1 L7O       0.041200
     30 H1A         28.5900    51.5140    13.8710 h1         1 L7O       0.041200
     31 H2          27.9330    51.1660    16.8320 hc         1 L7O       0.050700
     32 H2A         27.0440    52.1340    15.6580 hc         1 L7O       0.050700
     33 H3          25.9630    49.8760    16.0580 hc         1 L7O       0.043200
     34 H3A         26.4460    50.1040    14.3810 hc         1 L7O       0.043200
     35 H4          28.0140    48.5780    16.5150 hc         1 L7O       0.050700
     36 H4A         27.1870    47.8640    15.1340 hc         1 L7O       0.050700
     37 HN4         44.8120    52.0520    12.2340 hn         1 L7O       0.509000
     38 H5          28.7160    48.9190    13.5610 h1         1 L7O       0.041200
     39 H5A         29.6260    48.0520    14.8020 h1         1 L7O       0.041200
     40 H6          33.5610    48.4570    13.2040 ha         1 L7O       0.123500
     41 H8          40.7150    48.9550    11.1620 h4         1 L7O       0.227000
     42 H10         38.0180    51.2240    13.6390 ha         1 L7O       0.228000
     43 H13         41.6960    53.4600    15.0110 h4         1 L7O       0.022100
     44 H16         39.6670    52.1410    14.4790 ha         1 L7O       0.143000
     45 H18         33.7230    52.3030    15.0960 ha         1 L7O       0.123500
     46 H19         31.3570    52.1590    15.5980 ha         1 L7O       0.117500
     47 H21         31.2240    48.3130    13.6550 ha         1 L7O       0.117500
     48 H22         45.2830    50.5830    10.5470 h1         1 L7O       0.038700
     49 H22A        44.0170    49.5030    11.1570 h1         1 L7O       0.038700
     50 H22B        43.6050    50.7840    10.0100 h1         1 L7O       0.038700
     51 HN2         35.2720    49.0380    12.4850 hn         1 L7O       0.343500
     52 HN3         38.8910    47.6490    10.5400 hn         1 L7O       0.333500
     53 C7          35.2920    50.5920    13.8340 c          1 L7O       0.631700
     54 N4          44.0550    51.4480    11.9630 nu         1 L7O      -0.935100
@<TRIPOS>BOND
     1     1     2 1   
     2     1     4 1   
     3     1    29 1   
     4     1    30 1   
     5     2    10 1   
     6     2    26 1   
     7     3    18 2   
     8     4     7 1   
     9     4    31 1   
    10     4    32 1   
    11     5    17 1   
    12     5    51 1   
    13     5    53 1   
    14     6    53 2   
    15     7     9 1   
    16     7    33 1   
    17     7    34 1   
    18     8    14 1   
    19     8    18 1   
    20     8    52 1   
    21     9    10 1   
    22     9    35 1   
    23     9    36 1   
    24    10    38 1   
    25    10    39 1   
    26    11    19 ar  
    27    11    20 ar  
    28    12    23 ar  
    29    12    27 ar  
    30    12    40 1   
    31    13    20 ar  
    32    13    21 ar  
    33    14    15 2   
    34    14    41 1   
    35    15    16 1   
    36    15    21 1   
    37    16    17 2   
    38    16    42 1   
    39    17    18 1   
    40    19    22 ar  
    41    19    43 1   
    42    20    54 1   
    43    21    22 ar  
    44    22    44 1   
    45    23    24 ar  
    46    23    53 1   
    47    24    25 ar  
    48    24    45 1   
    49    25    26 ar  
    50    25    46 1   
    51    26    27 ar  
    52    27    47 1   
    53    28    48 1   
    54    28    49 1   
    55    28    50 1   
    56    28    54 1   
    57    37    54 1   
@<TRIPOS>SUBSTRUCTURE
     1 L7O         1 TEMP              0 ****  ****    0 ROOT
