@<TRIPOS>MOLECULE
L7P
   61    64     1     0     0
SMALL
bcc


@<TRIPOS>ATOM
      1 C02         -6.3100     0.8210     0.0410 c3         1 L7P       0.084100
      2 C03         -4.8470     0.3940    -0.0450 ca         1 L7P      -0.127300
      3 C04         -4.3040    -0.6110     0.7510 ca         1 L7P      -0.135000
      4 C05         -2.9780    -0.9550     0.5930 ca         1 L7P       0.146900
      5 C06         -2.1350    -0.3560    -0.3330 cp         1 L7P      -0.040000
      6 C07         -2.7060     0.6320    -1.1300 ca         1 L7P      -0.101000
      7 C08         -4.0340     1.0020    -0.9970 ca         1 L7P      -0.115000
      8 C09         -0.7240    -0.7540    -0.5020 cp         1 L7P      -0.049000
      9 C10         -0.2260    -1.0060    -1.7780 ca         1 L7P      -0.107500
     10 C11          1.1060    -1.3490    -1.9640 ca         1 L7P      -0.119500
     11 C12          1.9740    -1.4520    -0.8840 ca         1 L7P      -0.073300
     12 C13          3.4120    -1.8560    -1.0770 c3         1 L7P       0.214100
     13 C15          4.3750     0.3310    -0.8040 c6         1 L7P       0.165800
     14 C16          5.2750     1.1790     0.0730 c6         1 L7P       0.165800
     15 C18          6.5560    -0.7520     0.6190 c6         1 L7P       0.165800
     16 C19          5.6560    -1.5990    -0.2590 c6         1 L7P       0.165800
     17 C20          7.5170     1.4330     0.8940 c3         1 L7P       0.211100
     18 C21          8.9600     1.0730     0.6630 ca         1 L7P      -0.047300
     19 C22          9.4200     0.6700    -0.5860 ca         1 L7P      -0.239300
     20 C23         10.7680     0.3970    -0.7530 ca         1 L7P       0.395700
     21 C25         11.2280     0.8830     1.4130 ca         1 L7P       0.395700
     22 C26          9.8990     1.1740     1.6830 ca         1 L7P      -0.239300
     23 C27          1.4770    -1.1910     0.3920 ca         1 L7P      -0.119500
     24 C28          0.1490    -0.8520     0.5840 ca         1 L7P      -0.107500
     25 C30         -7.1600    -0.1800    -0.7760 c3         1 L7P       0.669400
     26 C34         -6.8050     0.9340     1.5080 c3         1 L7P       0.669400
     27 F29         -2.4980    -1.9410     1.3640 f          1 L7P      -0.130900
     28 F31         -6.7520    -0.1820    -2.0420 f          1 L7P      -0.217967
     29 F32         -7.0440    -1.4220    -0.3120 f          1 L7P      -0.217967
     30 F33         -8.4530     0.1360    -0.7710 f          1 L7P      -0.217967
     31 F35         -5.9550     1.6950     2.2010 f          1 L7P      -0.217967
     32 F36         -8.0000     1.5120     1.5730 f          1 L7P      -0.217967
     33 F37         -6.9030    -0.2390     2.1370 f          1 L7P      -0.217967
     34 N14          4.3230    -1.0330    -0.3130 n3         1 L7P      -0.724600
     35 N17          6.6090     0.6120     0.1290 n3         1 L7P      -0.725600
     36 N24         11.6680     0.4990     0.2210 nb         1 L7P      -0.665000
     37 O01         -6.5530     2.0430    -0.5720 oh         1 L7P      -0.558800
     38 H041        -4.8760    -1.1520     1.4900 ha         1 L7P       0.169000
     39 H071        -2.0920     1.1330    -1.8670 ha         1 L7P       0.146000
     40 H081        -4.4200     1.7690    -1.6530 ha         1 L7P       0.149000
     41 H101        -0.8830    -0.9430    -2.6360 ha         1 L7P       0.136500
     42 H111         1.4700    -1.5390    -2.9660 ha         1 L7P       0.140500
     43 H131         3.5340    -2.8910    -0.7420 h1         1 L7P       0.041200
     44 H132         3.6510    -1.8550    -2.1540 h1         1 L7P       0.041200
     45 H151         3.3710     0.7590    -0.7990 h1         1 L7P       0.040700
     46 H152         4.7390     0.3700    -1.8460 h1         1 L7P       0.040700
     47 H162         5.3330     2.1870    -0.3440 h1         1 L7P       0.040700
     48 H161         4.8240     1.2660     1.0760 h1         1 L7P       0.040700
     49 H181         6.1920    -0.7900     1.6610 h1         1 L7P       0.040700
     50 H182         7.5590    -1.1810     0.6150 h1         1 L7P       0.040700
     51 H191         6.1070    -1.6850    -1.2620 h1         1 L7P       0.040700
     52 H192         5.5990    -2.6080     0.1560 h1         1 L7P       0.040700
     53 H202         7.3010     1.4050     1.9750 h1         1 L7P       0.043700
     54 H201         7.3800     2.4740     0.5860 h1         1 L7P       0.043700
     55 H221         8.7340     0.5610    -1.4160 ha         1 L7P       0.146500
     56 H231        11.1380     0.0800    -1.7220 h4         1 L7P       0.017600
     57 H251        11.9680     0.9590     2.2010 h4         1 L7P       0.017600
     58 H261         9.6050     1.4730     2.6820 ha         1 L7P       0.146500
     59 H271         2.1450    -1.2420     1.2430 ha         1 L7P       0.140500
     60 H281        -0.1990    -0.6350     1.5850 ha         1 L7P       0.136500
     61 H011        -5.9210     2.7080    -0.2700 ho         1 L7P       0.441000
@<TRIPOS>BOND
     1     1     2 1   
     2     1    25 1   
     3     1    26 1   
     4     1    37 1   
     5     2     3 ar  
     6     2     7 ar  
     7     3     4 ar  
     8     3    38 1   
     9     4     5 ar  
    10     4    27 1   
    11     5     6 ar  
    12     5     8 1   
    13     6     7 ar  
    14     6    39 1   
    15     7    40 1   
    16     8     9 ar  
    17     8    24 ar  
    18     9    10 ar  
    19     9    41 1   
    20    10    11 ar  
    21    10    42 1   
    22    11    12 1   
    23    11    23 ar  
    24    12    34 1   
    25    12    43 1   
    26    12    44 1   
    27    13    14 1   
    28    13    34 1   
    29    13    45 1   
    30    13    46 1   
    31    14    35 1   
    32    14    47 1   
    33    14    48 1   
    34    15    16 1   
    35    15    35 1   
    36    15    49 1   
    37    15    50 1   
    38    16    34 1   
    39    16    51 1   
    40    16    52 1   
    41    17    18 1   
    42    17    35 1   
    43    17    53 1   
    44    17    54 1   
    45    18    19 ar  
    46    18    22 ar  
    47    19    20 ar  
    48    19    55 1   
    49    20    36 ar  
    50    20    56 1   
    51    21    22 ar  
    52    21    36 ar  
    53    21    57 1   
    54    22    58 1   
    55    23    24 ar  
    56    23    59 1   
    57    24    60 1   
    58    25    28 1   
    59    25    29 1   
    60    25    30 1   
    61    26    31 1   
    62    26    32 1   
    63    26    33 1   
    64    37    61 1   
@<TRIPOS>SUBSTRUCTURE
     1 L7P         1 TEMP              0 ****  ****    0 ROOT
