@<TRIPOS>MOLECULE
L7P
   61    64     1     0     0
SMALL
No Charge or Current Charge


@<TRIPOS>ATOM
      1 C02         -6.4210     0.9410    -0.0230 c3         1 L7P       0.107300
      2 C03         -4.9440     0.4400    -0.0520 ca         1 L7P      -0.127300
      3 C04         -4.4880    -0.6570     0.7210 ca         1 L7P      -0.117000
      4 C05         -3.1520    -1.0880     0.6560 ca         1 L7P       0.182000
      5 C06         -2.2110    -0.4500    -0.1900 cp         1 L7P      -0.040000
      6 C07         -2.6730     0.6300    -0.9770 ca         1 L7P      -0.083000
      7 C08         -4.0080     1.0640    -0.9110 ca         1 L7P      -0.097000
      8 C09         -0.7820    -0.8890    -0.2790 cp         1 L7P      -0.049000
      9 C10         -0.1370    -1.0010    -1.5350 ca         1 L7P      -0.089500
     10 C11          1.2060    -1.4040    -1.6300 ca         1 L7P      -0.101500
     11 C12          1.9430    -1.7010    -0.4670 ca         1 L7P      -0.073300
     12 C13          3.4030    -2.1360    -0.5620 c3         1 L7P       0.214100
     13 C15          4.3040     0.1770    -0.7450 c6         1 L7P       0.165800
     14 C16          5.2990     1.2220    -0.1470 c6         1 L7P       0.165800
     15 C18          6.7540    -0.5950     0.6130 c6         1 L7P       0.165800
     16 C19          5.7590    -1.6400     0.0150 c6         1 L7P       0.165800
     17 C20          7.6550     1.7180     0.4290 c3         1 L7P       0.211100
     18 C21          9.1150     1.2870     0.3200 ca         1 L7P      -0.047300
     19 C22          9.7380     1.1450    -0.9330 ca         1 L7P      -0.156000
     20 C23         11.0820     0.7410    -0.9940 ca         1 L7P       0.330400
     21 C25         11.2260     0.6130     1.3140 ca         1 L7P       0.330400
     22 C26          9.8870     1.0120     1.4650 ca         1 L7P      -0.156000
     23 C27          1.3180    -1.5870     0.7890 ca         1 L7P      -0.101500
     24 C28         -0.0250    -1.1850     0.8810 ca         1 L7P      -0.089500
     25 C30         -7.1850     0.3690    -1.2820 c3         1 L7P       0.305500
     26 C34         -7.1940     0.5990     1.3210 c3         1 L7P       0.305500
     27 F29         -2.7910    -2.1580     1.4020 f          1 L7P      -0.166000
     28 F31         -6.6250     0.7970    -2.4390 f          1 L7P      -0.096667
     29 F32         -7.1580    -0.9850    -1.3070 f          1 L7P      -0.096667
     30 F33         -8.4840     0.7510    -1.3070 f          1 L7P      -0.096667
     31 F35         -6.4520     0.9310     2.4040 f          1 L7P      -0.096667
     32 F36         -8.3560     1.2890     1.4170 f          1 L7P      -0.096667
     33 F37         -7.5090    -0.7140     1.4260 f          1 L7P      -0.096667
     34 N14          4.3530    -1.1340    -0.0230 n3         1 L7P      -0.724600
     35 N17          6.7050     0.7160    -0.1090 n3         1 L7P      -0.725600
     36 N24         11.8240     0.4780     0.1070 nb         1 L7P      -0.665000
     37 O01         -6.3720     2.3880    -0.1260 oh         1 L7P      -0.621000
     38 H041        -5.1510    -1.2060     1.3790 ha         1 L7P       0.151000
     39 H071        -1.9840     1.1460    -1.6410 ha         1 L7P       0.128000
     40 H081        -4.3090     1.8960    -1.5450 ha         1 L7P       0.131000
     41 H101        -0.6880    -0.7840    -2.4470 ha         1 L7P       0.118500
     42 H111         1.6750    -1.4840    -2.6080 ha         1 L7P       0.122500
     43 H131         3.5090    -3.0790    -0.0090 h1         1 L7P       0.041200
     44 H132         3.6460    -2.3570    -1.6110 h1         1 L7P       0.041200
     45 H151         3.2910     0.6030    -0.7020 h1         1 L7P       0.040700
     46 H152         4.5460     0.0320    -1.8080 h1         1 L7P       0.040700
     47 H162         5.2420     2.1420    -0.7470 h1         1 L7P       0.040700
     48 H161         4.9630     1.4810     0.8690 h1         1 L7P       0.040700
     49 H181         6.5110    -0.4490     1.6760 h1         1 L7P       0.040700
     50 H182         7.7670    -1.0210     0.5710 h1         1 L7P       0.040700
     51 H191         6.0950    -1.8990    -1.0000 h1         1 L7P       0.040700
     52 H192         5.8160    -2.5600     0.6150 h1         1 L7P       0.040700
     53 H202         7.4200     1.9320     1.4810 h1         1 L7P       0.043700
     54 H201         7.5440     2.6640    -0.1180 h1         1 L7P       0.043700
     55 H221         9.1880     1.3380    -1.8500 ha         1 L7P       0.128500
     56 H231        11.5820     0.6230    -1.9550 h4         1 L7P       0.017600
     57 H251        11.8410     0.3950     2.1870 h4         1 L7P       0.017600
     58 H261         9.4610     1.1010     2.4600 ha         1 L7P       0.128500
     59 H271         1.8810    -1.8030     1.6940 ha         1 L7P       0.122500
     60 H281        -0.4800    -1.0880     1.8640 ha         1 L7P       0.118500
     61 H011        -5.7230     2.7060     0.5390 ho         1 L7P       0.480000
@<TRIPOS>BOND
     1     1     2 1   
     2     1    25 1   
     3     1    26 1   
     4     1    37 1   
     5     2     3 ar  
     6     2     7 ar  
     7     3     4 ar  
     8     3    38 1   
     9     4     5 ar  
    10     4    27 1   
    11     5     6 ar  
    12     5     8 1   
    13     6     7 ar  
    14     6    39 1   
    15     7    40 1   
    16     8     9 ar  
    17     8    24 ar  
    18     9    10 ar  
    19     9    41 1   
    20    10    11 ar  
    21    10    42 1   
    22    11    12 1   
    23    11    23 ar  
    24    12    34 1   
    25    12    43 1   
    26    12    44 1   
    27    13    14 1   
    28    13    34 1   
    29    13    45 1   
    30    13    46 1   
    31    14    35 1   
    32    14    47 1   
    33    14    48 1   
    34    15    16 1   
    35    15    35 1   
    36    15    49 1   
    37    15    50 1   
    38    16    34 1   
    39    16    51 1   
    40    16    52 1   
    41    17    18 1   
    42    17    35 1   
    43    17    53 1   
    44    17    54 1   
    45    18    19 ar  
    46    18    22 ar  
    47    19    20 ar  
    48    19    55 1   
    49    20    36 ar  
    50    20    56 1   
    51    21    22 ar  
    52    21    36 ar  
    53    21    57 1   
    54    22    58 1   
    55    23    24 ar  
    56    23    59 1   
    57    24    60 1   
    58    25    28 1   
    59    25    29 1   
    60    25    30 1   
    61    26    31 1   
    62    26    32 1   
    63    26    33 1   
    64    37    61 1   
@<TRIPOS>SUBSTRUCTURE
     1 L7P         1 TEMP              0 ****  ****    0 ROOT
