@<TRIPOS>MOLECULE
L7Q
   40    41     1     0     0
SMALL
No Charge or Current Charge


@<TRIPOS>ATOM
      1 N1           8.0020     0.5290    21.1550 ns         1 L7Q      -0.152000
      2 C4           8.1350     1.7550    18.9760 ca         1 L7Q       0.319900
      3 C5           7.4500     0.9230    19.9000 ca         1 L7Q      -0.071000
      4 C6           9.2490     0.7350    21.7310 c          1 L7Q       0.605100
      5 C7           9.3990     0.1300    23.1370 c3         1 L7Q      -0.151400
      6 C8          10.2180    -1.2020    23.1620 c3         1 L7Q       0.011300
      7 C10         10.2710    -1.7240    24.6250 c3         1 L7Q      -0.089100
      8 C13         13.5490    -1.3620    21.1420 ca         1 L7Q      -0.107000
      9 C15         13.8140     0.2220    22.9570 ca         1 L7Q      -0.107000
     10 O           10.1490     1.3720    21.1980 o          1 L7Q      -0.567100
     11 N            7.6140     2.1330    17.7830 nb         1 L7Q      -0.644000
     12 C3           6.3790     1.6890    17.4650 ca         1 L7Q       0.308900
     13 C2           5.6240     0.8630    18.3140 ca         1 L7Q      -0.140000
     14 C1           6.1570     0.4670    19.5540 ca         1 L7Q      -0.096300
     15 C            5.3470    -0.4330    20.4830 c3         1 L7Q      -0.050800
     16 C9           9.4680    -2.2760    22.3190 c3         1 L7Q      -0.089100
     17 C11         11.6720    -0.9510    22.6750 ca         1 L7Q      -0.074300
     18 C16         12.4940    -0.0290    23.3680 ca         1 L7Q      -0.098000
     19 C14         14.3430    -0.4440    21.8430 ca         1 L7Q      -0.105000
     20 C12         12.2280    -1.6150    21.5510 ca         1 L7Q      -0.098000
     21 H1           7.3670    -0.0110    21.7280 hn         1 L7Q       0.149000
     22 H2           9.1280     2.1460    19.1820 h4         1 L7Q       0.053100
     23 H3           9.8860     0.8730    23.7780 hc         1 L7Q       0.064200
     24 H4           8.4010    -0.0830    23.5410 hc         1 L7Q       0.064200
     25 H5          10.7000    -0.9810    25.3070 hc         1 L7Q       0.039700
     26 H6           9.2670    -1.9670    24.9930 hc         1 L7Q       0.039700
     27 H7          10.8820    -2.6330    24.6890 hc         1 L7Q       0.039700
     28 H9          14.4260     0.9350    23.5050 ha         1 L7Q       0.111500
     29 H10          5.9820     2.0050    16.5020 h4         1 L7Q       0.021100
     30 H11          4.6360     0.5390    18.0010 ha         1 L7Q       0.120000
     31 H12          5.8800    -1.3680    20.6920 hc         1 L7Q       0.045367
     32 H13          5.1470     0.0640    21.4400 hc         1 L7Q       0.045367
     33 H14          4.3780    -0.7010    20.0450 hc         1 L7Q       0.045367
     34 H15          8.4450    -2.4200    22.6880 hc         1 L7Q       0.039700
     35 H16          9.4000    -1.9910    21.2620 hc         1 L7Q       0.039700
     36 H17          9.9770    -3.2460    22.3770 hc         1 L7Q       0.039700
     37 H18         12.1150     0.5040    24.2360 ha         1 L7Q       0.107500
     38 H19         15.3650    -0.2500    21.5250 ha         1 L7Q       0.113000
     39 H20         11.6550    -2.3350    20.9750 ha         1 L7Q       0.107500
     40 H8          13.9570    -1.8810    20.2770 ha         1 L7Q       0.111500
@<TRIPOS>BOND
     1     1     3 1   
     2     1     4 1   
     3     1    21 1   
     4     2     3 ar  
     5     2    11 ar  
     6     2    22 1   
     7     3    14 ar  
     8     4     5 1   
     9     4    10 2   
    10     5     6 1   
    11     5    23 1   
    12     5    24 1   
    13     6     7 1   
    14     6    16 1   
    15     6    17 1   
    16     7    25 1   
    17     7    26 1   
    18     7    27 1   
    19     8    19 ar  
    20     8    20 ar  
    21     8    40 1   
    22     9    18 ar  
    23     9    19 ar  
    24     9    28 1   
    25    11    12 ar  
    26    12    13 ar  
    27    12    29 1   
    28    13    14 ar  
    29    13    30 1   
    30    14    15 1   
    31    15    31 1   
    32    15    32 1   
    33    15    33 1   
    34    16    34 1   
    35    16    35 1   
    36    16    36 1   
    37    17    18 ar  
    38    17    20 ar  
    39    18    37 1   
    40    19    38 1   
    41    20    39 1   
@<TRIPOS>SUBSTRUCTURE
     1 L7Q         1 TEMP              0 ****  ****    0 ROOT
