@<TRIPOS>MOLECULE
L7Q
   40    41     1     0     0
SMALL
abcg2


@<TRIPOS>ATOM
      1 N1           7.9950     0.3590    21.2130 ns         1 L7Q      -0.152000
      2 C4           8.3730     1.3290    18.9840 ca         1 L7Q       0.319900
      3 C5           7.5400     0.7460    19.9440 ca         1 L7Q      -0.071000
      4 C6           9.1410     0.7200    21.8660 c          1 L7Q       0.605100
      5 C7           9.3370     0.0390    23.2030 c3         1 L7Q      -0.151400
      6 C8          10.2110    -1.2520    23.1400 c3         1 L7Q       0.011300
      7 C10         10.3030    -1.8070    24.5730 c3         1 L7Q      -0.089100
      8 C13         13.4030    -1.0920    20.9970 ca         1 L7Q      -0.107000
      9 C15         13.7020     0.2980    22.9270 ca         1 L7Q      -0.107000
     10 O            9.9510     1.5190    21.4100 o          1 L7Q      -0.567100
     11 N            7.9510     1.6810    17.7670 nb         1 L7Q      -0.644000
     12 C3           6.6720     1.4600    17.4580 ca         1 L7Q       0.308900
     13 C2           5.7760     0.8800    18.3450 ca         1 L7Q      -0.140000
     14 C1           6.1930     0.5090    19.6170 ca         1 L7Q      -0.096300
     15 C            5.2420    -0.1140    20.5960 c3         1 L7Q      -0.050800
     16 C9           9.5120    -2.3070    22.2730 c3         1 L7Q      -0.089100
     17 C11         11.6130    -0.9090    22.6300 ca         1 L7Q      -0.074300
     18 C16         12.4290    -0.0400    23.3640 ca         1 L7Q      -0.098000
     19 C14         14.1990    -0.2280    21.7370 ca         1 L7Q      -0.105000
     20 C12         12.1250    -1.4280    21.4410 ca         1 L7Q      -0.098000
     21 H1           7.3850    -0.2600    21.7230 hn         1 L7Q       0.149000
     22 H2           9.4100     1.5140    19.2170 h4         1 L7Q       0.053100
     23 H3           9.8130     0.7620    23.8630 hc         1 L7Q       0.064200
     24 H4           8.3720    -0.2290    23.6380 hc         1 L7Q       0.064200
     25 H5          10.7330    -1.0800    25.2620 hc         1 L7Q       0.039700
     26 H6           9.3080    -2.0710    24.9360 hc         1 L7Q       0.039700
     27 H7          10.9250    -2.7040    24.5910 hc         1 L7Q       0.039700
     28 H9          14.3080     0.9760    23.5160 ha         1 L7Q       0.111500
     29 H10          6.3510     1.7530    16.4650 h4         1 L7Q       0.021100
     30 H11          4.7470     0.7180    18.0470 ha         1 L7Q       0.120000
     31 H12          5.5540    -1.1290    20.8630 hc         1 L7Q       0.045367
     32 H13          5.1940     0.4640    21.5230 hc         1 L7Q       0.045367
     33 H14          4.2410    -0.1720    20.1730 hc         1 L7Q       0.045367
     34 H15          8.5160    -2.5040    22.6730 hc         1 L7Q       0.039700
     35 H16          9.3980    -1.9920    21.2360 hc         1 L7Q       0.039700
     36 H17         10.0710    -3.2440    22.2830 hc         1 L7Q       0.039700
     37 H18         12.0640     0.3920    24.2870 ha         1 L7Q       0.107500
     38 H19         15.1920     0.0350    21.3940 ha         1 L7Q       0.113000
     39 H20         11.5310    -2.1010    20.8400 ha         1 L7Q       0.107500
     40 H8          13.7720    -1.5100    20.0680 ha         1 L7Q       0.111500
@<TRIPOS>BOND
     1     1     3 1   
     2     1     4 1   
     3     1    21 1   
     4     2     3 ar  
     5     2    11 ar  
     6     2    22 1   
     7     3    14 ar  
     8     4     5 1   
     9     4    10 2   
    10     5     6 1   
    11     5    23 1   
    12     5    24 1   
    13     6     7 1   
    14     6    16 1   
    15     6    17 1   
    16     7    25 1   
    17     7    26 1   
    18     7    27 1   
    19     8    19 ar  
    20     8    20 ar  
    21     8    40 1   
    22     9    18 ar  
    23     9    19 ar  
    24     9    28 1   
    25    11    12 ar  
    26    12    13 ar  
    27    12    29 1   
    28    13    14 ar  
    29    13    30 1   
    30    14    15 1   
    31    15    31 1   
    32    15    32 1   
    33    15    33 1   
    34    16    34 1   
    35    16    35 1   
    36    16    36 1   
    37    17    18 ar  
    38    17    20 ar  
    39    18    37 1   
    40    19    38 1   
    41    20    39 1   
@<TRIPOS>SUBSTRUCTURE
     1 L7Q         1 TEMP              0 ****  ****    0 ROOT
