@<TRIPOS>MOLECULE
L7R
   42    44     1     0     0
SMALL
No Charge or Current Charge


@<TRIPOS>ATOM
      1 F          -83.1140    -0.7630    34.2890 f          1 L7R      -0.176000
      2 C2         -82.7530    -1.9730    34.7660 ca         1 L7R       0.174000
      3 C1         -82.9590    -3.1210    33.9860 ca         1 L7R      -0.150500
      4 C3         -82.1810    -2.0780    36.0430 ca         1 L7R      -0.150500
      5 C4         -81.8060    -3.3390    36.5400 ca         1 L7R      -0.078500
      6 C5         -81.9920    -4.5090    35.7650 cp         1 L7R      -0.033000
      7 C          -82.5840    -4.3820    34.4850 ca         1 L7R      -0.078500
      8 C6         -81.5930    -5.8390    36.3060 cp         1 L7R      -0.207000
      9 C9         -80.5900    -6.6600    35.7110 ca         1 L7R       0.194300
     10 N2         -80.2540    -7.8430    36.2760 nb         1 L7R      -0.245000
     11 C8         -80.9070    -8.1990    37.3900 ca         1 L7R       0.384900
     12 N1         -80.5590    -9.3910    37.9350 nv         1 L7R      -1.061900
     13 N          -81.8570    -7.5120    38.0330 nb         1 L7R      -0.240000
     14 C7         -82.1940    -6.3290    37.4900 ca         1 L7R       0.161900
     15 C10        -79.8200    -6.1970    34.4650 cy         1 L7R      -0.156000
     16 C12        -78.5210    -6.9740    34.0460 cy         1 L7R       0.224800
     17 N3         -79.4390    -7.8490    33.2740 nq         1 L7R      -0.753500
     18 C11        -80.3540    -6.7000    33.0780 cy         1 L7R       0.224800
     19 S          -78.8560    -8.6770    31.9050 s6         1 L7R       1.273200
     20 O          -78.2300    -7.6770    31.0360 o          1 L7R      -0.565000
     21 O1         -79.8900    -9.5970    31.4260 o          1 L7R      -0.565000
     22 N4         -77.6160    -9.6010    32.6480 n3         1 L7R      -0.736500
     23 C14        -78.0650   -10.4540    33.7700 c3         1 L7R       0.181600
     24 C13        -76.7760   -10.3350    31.6840 c3         1 L7R       0.181600
     25 H1         -83.4120    -3.0340    33.0020 ha         1 L7R       0.134500
     26 H2         -82.0280    -1.1850    36.6430 ha         1 L7R       0.134500
     27 H3         -81.3600    -3.4140    37.5290 ha         1 L7R       0.119000
     28 H4         -82.7660    -5.2680    33.8840 ha         1 L7R       0.119000
     29 H5         -80.0140   -10.0380    37.3690 hn         1 L7R       0.499500
     30 H6         -81.1680    -9.8020    38.6390 hn         1 L7R       0.499500
     31 H7         -82.9620    -5.7560    38.0080 h4         1 L7R       0.025100
     32 H8         -79.6540    -5.1160    34.4890 hc         1 L7R       0.084700
     33 H9         -77.9670    -7.4520    34.8620 h1         1 L7R       0.068700
     34 H10        -77.8330    -6.3700    33.4380 h1         1 L7R       0.068700
     35 H11        -80.0970    -6.0300    32.2470 h1         1 L7R       0.068700
     36 H12        -81.4210    -6.9450    33.0440 h1         1 L7R       0.068700
     37 H13        -78.5490    -9.8680    34.5620 h1         1 L7R       0.050700
     38 H14        -78.7780   -11.2160    33.4250 h1         1 L7R       0.050700
     39 H15        -77.2110   -10.9730    34.2270 h1         1 L7R       0.050700
     40 H16        -75.9430   -10.8350    32.1950 h1         1 L7R       0.050700
     41 H17        -77.3600   -11.1010    31.1550 h1         1 L7R       0.050700
     42 H18        -76.3460    -9.6540    30.9380 h1         1 L7R       0.050700
@<TRIPOS>BOND
     1     1     2 1   
     2     2     3 ar  
     3     2     4 ar  
     4     3     7 ar  
     5     3    25 1   
     6     4     5 ar  
     7     4    26 1   
     8     5     6 ar  
     9     5    27 1   
    10     6     7 ar  
    11     6     8 1   
    12     7    28 1   
    13     8     9 ar  
    14     8    14 ar  
    15     9    10 ar  
    16     9    15 1   
    17    10    11 ar  
    18    11    12 1   
    19    11    13 ar  
    20    12    29 1   
    21    12    30 1   
    22    13    14 ar  
    23    14    31 1   
    24    15    16 1   
    25    15    18 1   
    26    15    32 1   
    27    16    17 1   
    28    16    33 1   
    29    16    34 1   
    30    17    18 1   
    31    17    19 1   
    32    18    35 1   
    33    18    36 1   
    34    19    20 2   
    35    19    21 2   
    36    19    22 1   
    37    22    23 1   
    38    22    24 1   
    39    23    37 1   
    40    23    38 1   
    41    23    39 1   
    42    24    40 1   
    43    24    41 1   
    44    24    42 1   
@<TRIPOS>SUBSTRUCTURE
     1 L7R         1 TEMP              0 ****  ****    0 ROOT
