@<TRIPOS>MOLECULE
L7R
   42    44     1     0     0
SMALL
bcc


@<TRIPOS>ATOM
      1 F          -83.1680    -0.7160    34.4540 f          1 L7R      -0.140900
      2 C2         -82.7570    -1.9170    34.8900 ca         1 L7R       0.138900
      3 C1         -82.9540    -3.0240    34.0870 ca         1 L7R      -0.168500
      4 C3         -82.1520    -2.0090    36.1280 ca         1 L7R      -0.168500
      5 C4         -81.7280    -3.2540    36.5680 ca         1 L7R      -0.096500
      6 C5         -81.9070    -4.3970    35.7880 cp         1 L7R      -0.033000
      7 C          -82.5310    -4.2610    34.5480 ca         1 L7R      -0.096500
      8 C6         -81.4870    -5.7160    36.2940 cp         1 L7R      -0.337600
      9 C9         -80.6470    -6.6050    35.6120 ca         1 L7R       0.522600
     10 N2         -80.3440    -7.7910    36.1150 nb         1 L7R      -0.771000
     11 C8         -80.8470    -8.1240    37.3040 ca         1 L7R       0.910900
     12 N1         -80.5230    -9.3300    37.8020 nv         1 L7R      -0.951500
     13 N          -81.6260    -7.3360    38.0560 nb         1 L7R      -0.766000
     14 C7         -81.9270    -6.1630    37.5380 ca         1 L7R       0.490200
     15 C10        -80.0400    -6.2730    34.2810 cy         1 L7R      -0.156000
     16 C12        -78.6740    -6.9330    34.0050 cy         1 L7R       0.224800
     17 N3         -79.3690    -7.9260    33.1810 nq         1 L7R      -0.753500
     18 C11        -80.5990    -7.1280    33.1120 cy         1 L7R       0.224800
     19 S          -78.7050    -8.6840    31.8930 s6         1 L7R       1.414800
     20 O          -77.8610    -7.8170    31.0840 o          1 L7R      -0.635800
     21 O1         -79.8110    -9.3570    31.2280 o          1 L7R      -0.635800
     22 N4         -77.6970    -9.7070    32.7080 n3         1 L7R      -0.736500
     23 C14        -78.3590   -10.7460    33.4870 c3         1 L7R       0.181600
     24 C13        -76.5000   -10.1580    32.0070 c3         1 L7R       0.181600
     25 H1         -83.4390    -2.9270    33.1240 ha         1 L7R       0.152500
     26 H2         -82.0070    -1.1260    36.7370 ha         1 L7R       0.152500
     27 H3         -81.2420    -3.3320    37.5320 ha         1 L7R       0.137000
     28 H4         -82.7100    -5.1350    33.9340 ha         1 L7R       0.137000
     29 H5         -80.0820   -10.0070    37.2040 hn         1 L7R       0.444300
     30 H6         -81.0110    -9.6730    38.6110 hn         1 L7R       0.444300
     31 H7         -82.5700    -5.5250    38.1380 h4         1 L7R       0.025100
     32 H8         -80.0620    -5.2030    34.0940 hc         1 L7R       0.084700
     33 H9         -78.1440    -7.3560    34.8560 h1         1 L7R       0.068700
     34 H10        -78.0080    -6.2790    33.4380 h1         1 L7R       0.068700
     35 H11        -80.7110    -6.5470    32.1940 h1         1 L7R       0.068700
     36 H12        -81.5080    -7.6960    33.3030 h1         1 L7R       0.068700
     37 H13        -79.1780   -10.3240    34.0650 h1         1 L7R       0.050700
     38 H14        -78.7380   -11.5630    32.8680 h1         1 L7R       0.050700
     39 H15        -77.6330   -11.1530    34.1890 h1         1 L7R       0.050700
     40 H16        -75.8490   -10.6250    32.7450 h1         1 L7R       0.050700
     41 H17        -76.7120   -10.8940    31.2260 h1         1 L7R       0.050700
     42 H18        -75.9640    -9.3190    31.5750 h1         1 L7R       0.050700
@<TRIPOS>BOND
     1     1     2 1   
     2     2     3 ar  
     3     2     4 ar  
     4     3     7 ar  
     5     3    25 1   
     6     4     5 ar  
     7     4    26 1   
     8     5     6 ar  
     9     5    27 1   
    10     6     7 ar  
    11     6     8 1   
    12     7    28 1   
    13     8     9 ar  
    14     8    14 ar  
    15     9    10 ar  
    16     9    15 1   
    17    10    11 ar  
    18    11    12 1   
    19    11    13 ar  
    20    12    29 1   
    21    12    30 1   
    22    13    14 ar  
    23    14    31 1   
    24    15    16 1   
    25    15    18 1   
    26    15    32 1   
    27    16    17 1   
    28    16    33 1   
    29    16    34 1   
    30    17    18 1   
    31    17    19 1   
    32    18    35 1   
    33    18    36 1   
    34    19    20 2   
    35    19    21 2   
    36    19    22 1   
    37    22    23 1   
    38    22    24 1   
    39    23    37 1   
    40    23    38 1   
    41    23    39 1   
    42    24    40 1   
    43    24    41 1   
    44    24    42 1   
@<TRIPOS>SUBSTRUCTURE
     1 L7R         1 TEMP              0 ****  ****    0 ROOT
