@<TRIPOS>MOLECULE
L7S
   32    33     1     0     0
SMALL
No Charge or Current Charge


@<TRIPOS>ATOM
      1 C           -3.9030     1.9650    -0.4690 c3         1 L7S      -0.111100
      2 N           -2.8280    -0.2950    -0.2720 n          1 L7S      -0.387400
      3 C1          -4.0650     0.4410    -0.6110 c3         1 L7S       0.105000
      4 N1           5.2580     0.5790     0.3610 nt         1 L7S      -0.601000
      5 C2          -2.5980    -0.7570     1.0180 c          1 L7S       0.567000
      6 O2           4.5310    -1.4050    -0.3020 o          1 L7S      -0.602100
      7 C3          -1.3560    -1.6460     0.8950 c5         1 L7S      -0.166400
      8 C4          -0.6990    -1.2070    -0.4540 c5         1 L7S      -0.102400
      9 C5          -1.8670    -0.5730    -1.2380 c          1 L7S       0.567000
     10 C6           0.4190    -0.2170    -0.0950 ca         1 L7S      -0.084300
     11 C7           0.1460     1.1040     0.3160 ca         1 L7S      -0.081000
     12 C8           1.1930     1.9800     0.6380 ca         1 L7S      -0.117000
     13 C9           2.5280     1.5520     0.5560 ca         1 L7S      -0.078000
     14 C10          2.8300     0.2320     0.1480 ca         1 L7S      -0.148600
     15 C11          1.7630    -0.6380    -0.1730 ca         1 L7S      -0.038000
     16 C12          4.2550    -0.2690     0.0480 c          1 L7S       0.616700
     17 H           -3.1160     2.3330    -1.1370 hc         1 L7S       0.045367
     18 HA          -4.8390     2.4730    -0.7260 hc         1 L7S       0.045367
     19 HB          -3.6370     2.2310     0.5610 hc         1 L7S       0.045367
     20 H1          -4.8780     0.1030     0.0450 h1         1 L7S       0.065200
     21 H1A         -4.3630     0.2040    -1.6410 h1         1 L7S       0.065200
     22 HN1          6.2110     0.2570     0.2980 hn         1 L7S       0.314500
     23 HN1A         5.0540     1.5220     0.6530 hn         1 L7S       0.314500
     24 H3          -0.7290    -1.5960     1.7920 hc         1 L7S       0.090200
     25 H3A         -1.7190    -2.6750     0.7920 hc         1 L7S       0.090200
     26 H4          -0.3070    -2.0410    -1.0470 hc         1 L7S       0.094700
     27 H7          -0.8760     1.4660     0.3920 ha         1 L7S       0.116000
     28 H8           0.9700     2.9960     0.9540 ha         1 L7S       0.119000
     29 H9           3.3130     2.2580     0.8130 ha         1 L7S       0.114000
     30 H11          1.9800    -1.6570    -0.4850 ha         1 L7S       0.138000
     31 O           -3.1780    -0.3720     2.0220 o          1 L7S      -0.502000
     32 O1          -1.9930    -0.4110    -2.4430 o          1 L7S      -0.493000
@<TRIPOS>BOND
     1     1     3 1   
     2     1    17 1   
     3     1    18 1   
     4     1    19 1   
     5     2     3 1   
     6     2     5 1   
     7     2     9 1   
     8     3    20 1   
     9     3    21 1   
    10     4    16 1   
    11     4    22 1   
    12     4    23 1   
    13     5     7 1   
    14     5    31 2   
    15     6    16 2   
    16     7     8 1   
    17     7    24 1   
    18     7    25 1   
    19     8     9 1   
    20     8    10 1   
    21     8    26 1   
    22     9    32 2   
    23    10    11 ar  
    24    10    15 ar  
    25    11    12 ar  
    26    11    27 1   
    27    12    13 ar  
    28    12    28 1   
    29    13    14 ar  
    30    13    29 1   
    31    14    15 ar  
    32    14    16 1   
    33    15    30 1   
@<TRIPOS>SUBSTRUCTURE
     1 L7S         1 TEMP              0 ****  ****    0 ROOT
