@<TRIPOS>MOLECULE
L7S
   32    33     1     0     0
SMALL
abcg2


@<TRIPOS>ATOM
      1 C           -4.1330     1.8370    -0.7730 c3         1 L7S      -0.111100
      2 N           -2.8810    -0.2610    -0.4160 n          1 L7S      -0.387400
      3 C1          -4.0060     0.3580    -1.0970 c3         1 L7S       0.105000
      4 N1           5.1880     0.5830    -0.5270 nt         1 L7S      -0.601000
      5 C2          -2.9750    -0.8540     0.8250 c          1 L7S       0.567000
      6 O2           4.3960    -1.5260    -0.5540 o          1 L7S      -0.602100
      7 C3          -1.6050    -1.3260     1.2340 c5         1 L7S      -0.166400
      8 C4          -0.6960    -1.0000     0.0480 c5         1 L7S      -0.102400
      9 C5          -1.6050    -0.2680    -0.9260 c          1 L7S       0.567000
     10 C6           0.5270    -0.1790     0.3560 ca         1 L7S      -0.084300
     11 C7           0.4200     1.0120     1.0730 ca         1 L7S      -0.081000
     12 C8           1.5470     1.7720     1.3400 ca         1 L7S      -0.117000
     13 C9           2.7920     1.3610     0.8840 ca         1 L7S      -0.078000
     14 C10          2.9120     0.1800     0.1600 ca         1 L7S      -0.148600
     15 C11          1.7750    -0.5870    -0.0870 ca         1 L7S      -0.038000
     16 C12          4.2270    -0.3330    -0.3400 c          1 L7S       0.616700
     17 H           -3.2400     2.3880    -1.0670 hc         1 L7S       0.045367
     18 HA          -4.9790     2.2580    -1.3150 hc         1 L7S       0.045367
     19 HB          -4.3020     1.9970     0.2910 hc         1 L7S       0.045367
     20 H1          -4.9050    -0.1800    -0.8030 h1         1 L7S       0.065200
     21 H1A         -3.8720     0.2050    -2.1670 h1         1 L7S       0.065200
     22 HN1          6.0820     0.2960    -0.8920 hn         1 L7S       0.314500
     23 HN1A         5.0070     1.5710    -0.5000 hn         1 L7S       0.314500
     24 H3          -1.3110    -0.8140     2.1520 hc         1 L7S       0.090200
     25 H3A         -1.6340    -2.3910     1.4600 hc         1 L7S       0.090200
     26 H4          -0.3850    -1.9220    -0.4530 hc         1 L7S       0.094700
     27 H7          -0.5440     1.3520     1.4330 ha         1 L7S       0.116000
     28 H8           1.4570     2.6870     1.9100 ha         1 L7S       0.119000
     29 H9           3.6600     1.9620     1.1240 ha         1 L7S       0.114000
     30 H11          1.8660    -1.5140    -0.6400 ha         1 L7S       0.138000
     31 O           -4.0000    -0.9540     1.4530 o          1 L7S      -0.502000
     32 O1          -1.2830     0.2280    -1.9760 o          1 L7S      -0.493000
@<TRIPOS>BOND
     1     1     3 1   
     2     1    17 1   
     3     1    18 1   
     4     1    19 1   
     5     2     3 1   
     6     2     5 1   
     7     2     9 1   
     8     3    20 1   
     9     3    21 1   
    10     4    16 1   
    11     4    22 1   
    12     4    23 1   
    13     5     7 1   
    14     5    31 2   
    15     6    16 2   
    16     7     8 1   
    17     7    24 1   
    18     7    25 1   
    19     8     9 1   
    20     8    10 1   
    21     8    26 1   
    22     9    32 2   
    23    10    11 ar  
    24    10    15 ar  
    25    11    12 ar  
    26    11    27 1   
    27    12    13 ar  
    28    12    28 1   
    29    13    14 ar  
    30    13    29 1   
    31    14    15 ar  
    32    14    16 1   
    33    15    30 1   
@<TRIPOS>SUBSTRUCTURE
     1 L7S         1 TEMP              0 ****  ****    0 ROOT
