@<TRIPOS>MOLECULE
L7T
   17    17     1     0     0
SMALL
No Charge or Current Charge


@<TRIPOS>ATOM
      1 C4          15.9830     4.7860    15.5030 ca         1 L7T       0.075000
      2 C5          15.4190     3.7190    16.2290 ca         1 L7T       0.269000
      3 N           15.9540     0.1810    16.9550 n8         1 L7T      -1.057100
      4 C           15.3460     2.4270    15.6610 ca         1 L7T      -0.324500
      5 O           14.0860     1.4460    17.8440 o          1 L7T      -0.525500
      6 C1          15.8570     2.2230    14.3600 ca         1 L7T       0.269000
      7 C2          16.4210     3.2910    13.6370 ca         1 L7T       0.075000
      8 C3          16.4810     4.5710    14.2080 ca         1 L7T       0.190000
      9 F           15.8320     0.9980    13.7840 f          1 L7T      -0.124500
     10 F1          16.9090     3.0840    12.3890 f          1 L7T      -0.131000
     11 F2          17.0240     5.5980    13.5120 f          1 L7T      -0.123000
     12 F3          16.0480     6.0230    16.0530 f          1 L7T      -0.131000
     13 F4          14.9560     3.9720    17.4740 f          1 L7T      -0.124500
     14 O1          13.9190     0.1560    15.6520 o          1 L7T      -0.525500
     15 S           14.6400     1.0500    16.5530 sy         1 L7T       1.185600
     16 H1          15.7930     0.0840    17.9560 hn         1 L7T       0.501500
     17 H2          15.6650    -0.7310    16.6080 hn         1 L7T       0.501500
@<TRIPOS>BOND
     1     1     2 ar  
     2     1     8 ar  
     3     1    12 1   
     4     2     4 ar  
     5     2    13 1   
     6     3    15 1   
     7     3    16 1   
     8     3    17 1   
     9     4     6 ar  
    10     4    15 1   
    11     5    15 2   
    12     6     7 ar  
    13     6     9 1   
    14     7     8 ar  
    15     7    10 1   
    16     8    11 1   
    17    14    15 2   
@<TRIPOS>SUBSTRUCTURE
     1 L7T         1 TEMP              0 ****  ****    0 ROOT
