@<TRIPOS>MOLECULE
L7T
   17    17     1     0     0
SMALL
bcc


@<TRIPOS>ATOM
      1 C4          15.8310     4.8090    15.4170 ca         1 L7T       0.039900
      2 C5          15.2800     3.7910    16.1750 ca         1 L7T       0.233900
      3 N           15.7920    -0.0300    16.6650 n8         1 L7T      -0.946700
      4 C           15.3840     2.4670    15.7690 ca         1 L7T      -0.324500
      5 O           14.5540     1.5890    18.0900 o          1 L7T      -0.596300
      6 C1          15.9980     2.2010    14.5530 ca         1 L7T       0.233900
      7 C2          16.5530     3.2080    13.7910 ca         1 L7T       0.039900
      8 C3          16.4700     4.5170    14.2290 ca         1 L7T       0.154900
      9 F           16.0580     0.9620    14.0890 f          1 L7T      -0.089400
     10 F1          17.1540     2.9300    12.6430 f          1 L7T      -0.095900
     11 F2          16.9970     5.4890    13.5060 f          1 L7T      -0.087900
     12 F3          15.7420     6.0660    15.8260 f          1 L7T      -0.095900
     13 F4          14.6600     4.1330    17.2910 f          1 L7T      -0.089400
     14 O1          13.4770     0.7280    15.9800 o          1 L7T      -0.596300
     15 S           14.6540     1.1340    16.7190 sy         1 L7T       1.327200
     16 H1          16.1450    -0.3030    17.5740 hn         1 L7T       0.446300
     17 H2          15.5850    -0.8150    16.0600 hn         1 L7T       0.446300
@<TRIPOS>BOND
     1     1     2 ar  
     2     1     8 ar  
     3     1    12 1   
     4     2     4 ar  
     5     2    13 1   
     6     3    15 1   
     7     3    16 1   
     8     3    17 1   
     9     4     6 ar  
    10     4    15 1   
    11     5    15 2   
    12     6     7 ar  
    13     6     9 1   
    14     7     8 ar  
    15     7    10 1   
    16     8    11 1   
    17    14    15 2   
@<TRIPOS>SUBSTRUCTURE
     1 L7T         1 TEMP              0 ****  ****    0 ROOT
