@<TRIPOS>MOLECULE
L7V
   40    43     1     0     0
SMALL
abcg2


@<TRIPOS>ATOM
      1 N1           8.2000     0.3250    23.1290 n          1 L7V      -0.416800
      2 N3          10.9630    -0.7070    23.1330 nc         1 L7V      -0.723000
      3 C4           5.5990     1.9060    18.1900 ca         1 L7V      -0.162000
      4 C5           6.1750     1.1540    17.1730 ca         1 L7V       0.336900
      5 C6           7.0870    -0.3090    18.6740 ca         1 L7V       0.349900
      6 C7           7.4500    -0.6580    23.9280 c5         1 L7V       0.111000
      7 C8           8.2890    -0.8020    25.1970 c5         1 L7V      -0.092400
      8 C10          9.2490     0.9990    23.8960 c5         1 L7V       0.089400
      9 C13         13.1320    -1.6810    22.4310 cx         1 L7V      -0.206000
     10 C15         14.5890    -1.6530    22.8580 cx         1 L7V      -0.098400
     11 N            6.9070     0.0600    17.4030 nb         1 L7V      -0.665000
     12 N2          11.5960     1.4410    23.3460 nd         1 L7V      -0.356300
     13 C11         10.6180     0.5870    23.4410 cc         1 L7V       0.553300
     14 C1           6.8210    -0.0960    21.1670 c3         1 L7V      -0.099100
     15 O1          12.6920     0.6400    22.9450 os         1 L7V      -0.117700
     16 C2           6.5600     0.3740    19.7670 ca         1 L7V      -0.119300
     17 C9           8.9530     0.5690    25.3470 c5         1 L7V      -0.081400
     18 C12         12.2310    -0.6160    22.8390 cd         1 L7V       0.538300
     19 C14         14.2420    -1.4020    21.4320 cx         1 L7V      -0.098400
     20 C            7.9750     0.6420    21.8390 c          1 L7V       0.603100
     21 O            8.6640     1.4740    21.2460 o          1 L7V      -0.590100
     22 C3           5.7960     1.5080    19.5050 ca         1 L7V      -0.056000
     23 H2           6.0400     1.4380    16.1350 h4         1 L7V       0.018100
     24 H3           7.6830    -1.2030    18.8370 h4         1 L7V       0.017100
     25 H4           6.4510    -0.2740    24.1510 h1         1 L7V       0.046200
     26 H5           7.3470    -1.5980    23.3890 h1         1 L7V       0.046200
     27 H6           7.6790    -1.0690    26.0590 hc         1 L7V       0.063200
     28 H7           9.0440    -1.5750    25.0580 hc         1 L7V       0.063200
     29 H8           9.1720     2.0780    23.7740 h1         1 L7V       0.094700
     30 H9          12.6450    -2.6440    22.3810 hc         1 L7V       0.112700
     31 H10         15.0220    -2.6070    23.1280 hc         1 L7V       0.085200
     32 H11         14.9060    -0.8130    23.4600 hc         1 L7V       0.085200
     33 H12          5.9260     0.0280    21.7830 hc         1 L7V       0.066200
     34 H13          7.0530    -1.1630    21.1720 hc         1 L7V       0.066200
     35 H14          9.8540     0.5490    25.9570 hc         1 L7V       0.061700
     36 H15          8.2580     1.2860    25.7860 hc         1 L7V       0.061700
     37 H16         14.4300    -2.1800    20.7050 hc         1 L7V       0.085200
     38 H17         14.3190    -0.3900    21.0600 hc         1 L7V       0.085200
     39 H18          5.3620     2.0710    20.3220 ha         1 L7V       0.117000
     40 H1           5.0100     2.7820    17.9530 ha         1 L7V       0.123000
@<TRIPOS>BOND
     1     1     6 1   
     2     1     8 1   
     3     1    20 1   
     4     2    13 1   
     5     2    18 2   
     6     3     4 ar  
     7     3    22 ar  
     8     3    40 1   
     9     4    11 ar  
    10     4    23 1   
    11     5    11 ar  
    12     5    16 ar  
    13     5    24 1   
    14     6     7 1   
    15     6    25 1   
    16     6    26 1   
    17     7    17 1   
    18     7    27 1   
    19     7    28 1   
    20     8    13 1   
    21     8    17 1   
    22     8    29 1   
    23     9    10 1   
    24     9    18 1   
    25     9    19 1   
    26     9    30 1   
    27    10    19 1   
    28    10    31 1   
    29    10    32 1   
    30    12    13 2   
    31    12    15 1   
    32    14    16 1   
    33    14    20 1   
    34    14    33 1   
    35    14    34 1   
    36    15    18 1   
    37    16    22 ar  
    38    17    35 1   
    39    17    36 1   
    40    19    37 1   
    41    19    38 1   
    42    20    21 2   
    43    22    39 1   
@<TRIPOS>SUBSTRUCTURE
     1 L7V         1 TEMP              0 ****  ****    0 ROOT
