@<TRIPOS>MOLECULE
L7V
   40    43     1     0     0
SMALL
No Charge or Current Charge


@<TRIPOS>ATOM
      1 N1           8.7130     0.4060    22.3250 n          1 L7V      -0.416800
      2 N3          11.2560    -0.6240    23.4180 nc         1 L7V      -0.723000
      3 C4           4.5260     0.9900    19.4310 ca         1 L7V      -0.162000
      4 C5           4.8500     1.9330    18.4410 ca         1 L7V       0.336900
      5 C6           7.0850     1.3230    18.4940 ca         1 L7V       0.349900
      6 C7           7.6040    -0.2730    23.0330 c5         1 L7V       0.111000
      7 C8           8.0350    -0.1330    24.5150 c5         1 L7V      -0.092400
      8 C10          9.5650     1.2380    23.2230 c5         1 L7V       0.089400
      9 C13         13.3630    -1.8700    23.7490 cx         1 L7V      -0.206000
     10 C15         14.6540    -1.9930    22.9650 cx         1 L7V      -0.098400
     11 N            6.1080     2.1030    17.9730 nb         1 L7V      -0.665000
     12 N2          12.0050     1.5100    23.7550 nd         1 L7V      -0.356300
     13 C11         10.9830     0.7170    23.4730 cc         1 L7V       0.553300
     14 C1           8.0030    -0.4910    20.0410 c3         1 L7V      -0.099100
     15 O1          13.0730     0.5970    23.8990 os         1 L7V      -0.117700
     16 C2           6.8520     0.3500    19.4900 ca         1 L7V      -0.119300
     17 C9           8.7100     1.2600    24.5270 c5         1 L7V      -0.081400
     18 C12         12.5420    -0.6370    23.6780 cd         1 L7V       0.538300
     19 C14         13.4520    -2.8200    22.5720 cx         1 L7V      -0.098400
     20 C            8.9210     0.3690    20.9300 c          1 L7V       0.603100
     21 O            9.8050     1.0500    20.4250 o          1 L7V      -0.590100
     22 C3           5.5400     0.1820    19.9690 ca         1 L7V      -0.056000
     23 H2           4.0810     2.5710    18.0080 h4         1 L7V       0.018100
     24 H3           8.0870     1.4820    18.0970 h4         1 L7V       0.017100
     25 H4           6.6520     0.2390    22.8390 h1         1 L7V       0.046200
     26 H5           7.5000    -1.3300    22.7560 h1         1 L7V       0.046200
     27 H6           7.1860    -0.2010    25.2040 hc         1 L7V       0.063200
     28 H7           8.7430    -0.9220    24.7950 hc         1 L7V       0.063200
     29 H8           9.6540     2.2580    22.8260 h1         1 L7V       0.094700
     30 H9          13.3460    -2.3170    24.7400 hc         1 L7V       0.112700
     31 H10         15.4890    -2.5050    23.4370 hc         1 L7V       0.085200
     32 H11         14.9380    -1.1720    22.3100 hc         1 L7V       0.085200
     33 H12          7.5930    -1.3360    20.6010 hc         1 L7V       0.066200
     34 H13          8.5940    -0.8770    19.2020 hc         1 L7V       0.066200
     35 H14          9.3090     1.4370    25.4280 hc         1 L7V       0.061700
     36 H15          7.9560     2.0550    24.4810 hc         1 L7V       0.061700
     37 H16         13.4790    -3.8870    22.7800 hc         1 L7V       0.085200
     38 H17         12.9300    -2.5500    21.6560 hc         1 L7V       0.085200
     39 H18          5.3080    -0.5540    20.7360 ha         1 L7V       0.117000
     40 H1           3.4990     0.8930    19.7720 ha         1 L7V       0.123000
@<TRIPOS>BOND
     1     1     6 1   
     2     1     8 1   
     3     1    20 1   
     4     2    13 1   
     5     2    18 2   
     6     3     4 ar  
     7     3    22 ar  
     8     3    40 1   
     9     4    11 ar  
    10     4    23 1   
    11     5    11 ar  
    12     5    16 ar  
    13     5    24 1   
    14     6     7 1   
    15     6    25 1   
    16     6    26 1   
    17     7    17 1   
    18     7    27 1   
    19     7    28 1   
    20     8    13 1   
    21     8    17 1   
    22     8    29 1   
    23     9    10 1   
    24     9    18 1   
    25     9    19 1   
    26     9    30 1   
    27    10    19 1   
    28    10    31 1   
    29    10    32 1   
    30    12    13 2   
    31    12    15 1   
    32    14    16 1   
    33    14    20 1   
    34    14    33 1   
    35    14    34 1   
    36    15    18 1   
    37    16    22 ar  
    38    17    35 1   
    39    17    36 1   
    40    19    37 1   
    41    19    38 1   
    42    20    21 2   
    43    22    39 1   
@<TRIPOS>SUBSTRUCTURE
     1 L7V         1 TEMP              0 ****  ****    0 ROOT
