@<TRIPOS>MOLECULE
L7W
   43    45     1     0     0
SMALL
bcc


@<TRIPOS>ATOM
      1 O2         -82.7430    -0.1920    32.9990 o          1 L7W      -0.603100
      2 C10        -82.8260    -1.4090    32.8970 c          1 L7W       0.639100
      3 C11        -83.7520    -2.0150    31.8460 c3         1 L7W       0.055400
      4 O1         -83.2150    -3.1240    31.1610 os         1 L7W      -0.302900
      5 C12        -82.0920    -2.9500    30.4330 ca         1 L7W       0.083100
      6 C17        -81.5590    -1.7280    30.0420 ca         1 L7W      -0.176000
      7 C16        -80.4000    -1.6850    29.2730 ca         1 L7W      -0.110000
      8 C15        -79.7630    -2.8520    28.8860 ca         1 L7W      -0.132000
      9 C14        -80.2850    -4.0810    29.2760 ca         1 L7W      -0.141000
     10 C13        -81.4300    -4.1130    30.0390 ca         1 L7W       0.109900
     11 F          -81.9330    -5.2940    30.4290 f          1 L7W      -0.131900
     12 N2         -82.1430    -2.2440    33.6910 n          1 L7W      -0.474800
     13 C8         -81.2310    -1.7110    34.7010 c5         1 L7W       0.097000
     14 C7         -80.6170    -2.9570    35.3190 c5         1 L7W      -0.087400
     15 C9         -82.3140    -3.6890    33.8100 c5         1 L7W       0.120000
     16 C6         -81.7460    -3.9880    35.1930 c5         1 L7W      -0.171700
     17 C5         -81.2400    -5.4080    35.3320 c          1 L7W       0.687100
     18 O          -80.7020    -5.9980    34.4140 o          1 L7W      -0.569100
     19 N1         -81.4080    -5.9300    36.5750 ns         1 L7W      -0.553400
     20 C4         -81.0070    -7.1650    37.0800 ca         1 L7W       0.541200
     21 C          -80.4070    -8.1740    36.3250 ca         1 L7W      -0.256300
     22 N          -81.2650    -7.2960    38.3760 nb         1 L7W      -0.737000
     23 C3         -80.9350    -8.4290    38.9810 ca         1 L7W       0.436200
     24 C2         -80.3330    -9.4930    38.3310 ca         1 L7W      -0.275300
     25 C1         -80.0710    -9.3490    36.9760 ca         1 L7W      -0.070000
     26 H1         -84.0510    -1.2180    31.1600 h1         1 L7W       0.080200
     27 H2         -84.6580    -2.3810    32.3330 h1         1 L7W       0.080200
     28 H3         -82.0340    -0.7970    30.3220 ha         1 L7W       0.151000
     29 H4         -80.0010    -0.7240    28.9780 ha         1 L7W       0.137000
     30 H5         -78.8640    -2.8170    28.2880 ha         1 L7W       0.138000
     31 H6         -79.8060    -5.0090    28.9940 ha         1 L7W       0.152000
     32 H7         -80.4850    -1.0570    34.2500 h1         1 L7W       0.060200
     33 H8         -81.7820    -1.1290    35.4440 h1         1 L7W       0.060200
     34 H9         -79.7480    -3.2820    34.7440 hc         1 L7W       0.067200
     35 H10        -80.3030    -2.7960    36.3490 hc         1 L7W       0.067200
     36 H11        -83.3600    -3.9830    33.7300 h1         1 L7W       0.073700
     37 H12        -81.7430    -4.2220    33.0490 h1         1 L7W       0.073700
     38 H13        -82.5040    -3.7780    35.9520 hc         1 L7W       0.068700
     39 H14        -81.8570    -5.3480    37.2680 hn         1 L7W       0.333500
     40 H15        -80.2100    -8.0510    35.2730 ha         1 L7W       0.175000
     41 H16        -81.1640    -8.4890    40.0390 h4         1 L7W       0.019100
     42 H17        -80.0810   -10.3970    38.8660 ha         1 L7W       0.145000
     43 H18        -79.6050   -10.1500    36.4180 ha         1 L7W       0.140000
@<TRIPOS>BOND
     1     1     2 2   
     2     2     3 1   
     3     2    12 1   
     4     3     4 1   
     5     3    26 1   
     6     3    27 1   
     7     4     5 1   
     8     5     6 ar  
     9     5    10 ar  
    10     6     7 ar  
    11     6    28 1   
    12     7     8 ar  
    13     7    29 1   
    14     8     9 ar  
    15     8    30 1   
    16     9    10 ar  
    17     9    31 1   
    18    10    11 1   
    19    12    13 1   
    20    12    15 1   
    21    13    14 1   
    22    13    32 1   
    23    13    33 1   
    24    14    16 1   
    25    14    34 1   
    26    14    35 1   
    27    15    16 1   
    28    15    36 1   
    29    15    37 1   
    30    16    17 1   
    31    16    38 1   
    32    17    18 2   
    33    17    19 1   
    34    19    20 1   
    35    19    39 1   
    36    20    21 ar  
    37    20    22 ar  
    38    21    25 ar  
    39    21    40 1   
    40    22    23 ar  
    41    23    24 ar  
    42    23    41 1   
    43    24    25 ar  
    44    24    42 1   
    45    25    43 1   
@<TRIPOS>SUBSTRUCTURE
     1 L7W         1 TEMP              0 ****  ****    0 ROOT
