@<TRIPOS>MOLECULE
L7W
   43    45     1     0     0
SMALL
No Charge or Current Charge


@<TRIPOS>ATOM
      1 O2         -82.7640    -0.2540    32.9150 o          1 L7W      -0.603100
      2 C10        -82.8390    -1.4780    32.9390 c          1 L7W       0.572100
      3 C11        -83.7960    -2.2340    31.9810 c3         1 L7W       0.078600
      4 O1         -83.1340    -3.2910    31.2410 os         1 L7W      -0.326100
      5 C12        -82.1000    -3.0560    30.3520 ca         1 L7W       0.083100
      6 C17        -81.7960    -1.7620    29.8700 ca         1 L7W      -0.158000
      7 C16        -80.7320    -1.5760    28.9690 ca         1 L7W      -0.092000
      8 C15        -79.9670    -2.6740    28.5390 ca         1 L7W      -0.114000
      9 C14        -80.2670    -3.9640    29.0090 ca         1 L7W      -0.123000
     10 C13        -81.3290    -4.1530    29.9080 ca         1 L7W       0.145000
     11 F          -81.6010    -5.4020    30.3550 f          1 L7W      -0.167000
     12 N2         -82.0660    -2.2150    33.8640 n          1 L7W      -0.407800
     13 C8         -81.1090    -1.5710    34.7920 c5         1 L7W       0.097000
     14 C7         -80.2990    -2.7880    35.3090 c5         1 L7W      -0.087400
     15 C9         -82.1180    -3.6890    34.0080 c5         1 L7W       0.120000
     16 C6         -81.4040    -3.8800    35.3720 c5         1 L7W      -0.171700
     17 C5         -80.7950    -5.3020    35.4540 c          1 L7W       0.620100
     18 O          -80.0030    -5.7950    34.6630 o          1 L7W      -0.569100
     19 N1         -81.2880    -5.9350    36.5720 ns         1 L7W      -0.319900
     20 C4         -81.0500    -7.2140    37.0860 ca         1 L7W       0.475900
     21 C          -80.1900    -8.1850    36.5320 ca         1 L7W      -0.173000
     22 N          -81.7640    -7.4150    38.2110 nb         1 L7W      -0.737000
     23 C3         -81.6410    -8.6120    38.8300 ca         1 L7W       0.370900
     24 C2         -80.8080    -9.6370    38.3490 ca         1 L7W      -0.192000
     25 C1         -80.0650    -9.4260    37.1780 ca         1 L7W      -0.052000
     26 H1         -84.2570    -1.5060    31.3020 h1         1 L7W       0.080200
     27 H2         -84.5950    -2.6580    32.6000 h1         1 L7W       0.080200
     28 H3         -82.3750    -0.8940    30.1750 ha         1 L7W       0.133000
     29 H4         -80.5010    -0.5780    28.6000 ha         1 L7W       0.119000
     30 H5         -79.1450    -2.5250    27.8420 ha         1 L7W       0.120000
     31 H6         -79.6790    -4.8170    28.6780 ha         1 L7W       0.134000
     32 H7         -80.4670    -0.8360    34.2880 h1         1 L7W       0.060200
     33 H8         -81.6440    -1.0660    35.6070 h1         1 L7W       0.060200
     34 H9         -79.5040    -3.0530    34.6010 hc         1 L7W       0.067200
     35 H10        -79.8260    -2.5970    36.2790 hc         1 L7W       0.067200
     36 H11        -83.1440    -4.0790    34.0250 h1         1 L7W       0.073700
     37 H12        -81.5720    -4.1740    33.1870 h1         1 L7W       0.073700
     38 H13        -82.0930    -3.6920    36.2050 hc         1 L7W       0.068700
     39 H14        -81.9340    -5.3920    37.1260 hn         1 L7W       0.167000
     40 H15        -79.6270    -7.9950    35.6260 ha         1 L7W       0.157000
     41 H16        -82.2270    -8.7530    39.7370 h4         1 L7W       0.019100
     42 H17        -80.7450   -10.5800    38.8850 ha         1 L7W       0.127000
     43 H18        -79.4120   -10.2000    36.7810 ha         1 L7W       0.122000
@<TRIPOS>BOND
     1     1     2 2   
     2     2     3 1   
     3     2    12 1   
     4     3     4 1   
     5     3    26 1   
     6     3    27 1   
     7     4     5 1   
     8     5     6 ar  
     9     5    10 ar  
    10     6     7 ar  
    11     6    28 1   
    12     7     8 ar  
    13     7    29 1   
    14     8     9 ar  
    15     8    30 1   
    16     9    10 ar  
    17     9    31 1   
    18    10    11 1   
    19    12    13 1   
    20    12    15 1   
    21    13    14 1   
    22    13    32 1   
    23    13    33 1   
    24    14    16 1   
    25    14    34 1   
    26    14    35 1   
    27    15    16 1   
    28    15    36 1   
    29    15    37 1   
    30    16    17 1   
    31    16    38 1   
    32    17    18 2   
    33    17    19 1   
    34    19    20 1   
    35    19    39 1   
    36    20    21 ar  
    37    20    22 ar  
    38    21    25 ar  
    39    21    40 1   
    40    22    23 ar  
    41    23    24 ar  
    42    23    41 1   
    43    24    25 ar  
    44    24    42 1   
    45    25    43 1   
@<TRIPOS>SUBSTRUCTURE
     1 L7W         1 TEMP              0 ****  ****    0 ROOT
