@<TRIPOS>MOLECULE
L7Y
   52    55     1     0     0
SMALL
No Charge or Current Charge


@<TRIPOS>ATOM
      1 Cl          -7.2100    -3.6710    -0.3730 cl         1 L7Y      -0.197000
      2 C02         -6.1030    -2.3050    -0.4270 ca         1 L7Y       0.119000
      3 C03         -6.0710    -1.4700    -1.5510 ca         1 L7Y      -0.097000
      4 C04         -5.1870    -0.3770    -1.5950 ca         1 L7Y      -0.100500
      5 C05         -4.3160    -0.0960    -0.5110 ca         1 L7Y      -0.022800
      6 C06         -4.3610    -0.9600     0.6100 ca         1 L7Y      -0.100500
      7 C07         -5.2480    -2.0510     0.6530 ca         1 L7Y      -0.097000
      8 C08         -3.3730     1.0460    -0.5370 cc         1 L7Y      -0.146200
      9 C09         -3.6640     2.0980    -1.3930 cd         1 L7Y      -0.008400
     10 N10         -2.8440     3.2140    -1.4150 ns         1 L7Y      -0.360100
     11 C11         -1.7340     3.4250    -0.6360 c          1 L7Y       0.556200
     12 O12         -1.0870     4.4570    -0.7340 o          1 L7Y      -0.536000
     13 C13         -1.4300     2.3110     0.3000 cd         1 L7Y      -0.241400
     14 C14         -0.2300     2.4960     1.1940 c3         1 L7Y       0.274000
     15 N15          0.6920     1.3860     0.9350 nu         1 L7Y      -0.942200
     16 C16          1.9270     1.1540     1.5400 ca         1 L7Y       0.314000
     17 C17          2.3300     1.8640     2.6840 ca         1 L7Y      -0.170000
     18 C18          3.5720     1.5950     3.2800 ca         1 L7Y      -0.075000
     19 C19          4.4210     0.6210     2.7290 ca         1 L7Y      -0.122000
     20 C20          4.0460    -0.0870     1.5660 ca         1 L7Y      -0.099600
     21 C21          2.7780     0.1810     0.9930 ca         1 L7Y      -0.164000
     22 C22          4.9740    -1.1510     1.0040 c          1 L7Y       0.615700
     23 O23          5.7060    -1.7930     1.7500 o          1 L7Y      -0.597100
     24 N24          4.9090    -1.4540    -0.3780 n          1 L7Y      -0.407800
     25 C25          5.5670    -2.6760    -0.9350 c6         1 L7Y       0.058500
     26 C26          6.8490    -2.3310    -1.7340 c6         1 L7Y       0.130100
     27 O27          6.5420    -1.3550    -2.7540 os         1 L7Y      -0.447000
     28 C28          6.0210    -0.1200    -2.2150 c6         1 L7Y       0.130100
     29 C29          4.7200    -0.3860    -1.4110 c6         1 L7Y       0.058500
     30 C30         -2.2380     1.1860     0.3460 cc         1 L7Y      -0.068000
     31 H1          -6.7270    -1.6730    -2.3930 ha         1 L7Y       0.131500
     32 H2          -5.1750     0.2210    -2.5010 ha         1 L7Y       0.116500
     33 H3          -3.7320    -0.7850     1.4770 ha         1 L7Y       0.116500
     34 H4          -5.2740    -2.6970     1.5270 ha         1 L7Y       0.131500
     35 H6          -4.5150     2.1680    -2.0630 h4         1 L7Y       0.205000
     36 H7           0.2730     3.4550     1.0120 h1         1 L7Y       0.050200
     37 H8          -0.5610     2.4820     2.2420 h1         1 L7Y       0.050200
     38 H9           0.4900     0.8230     0.1100 hn         1 L7Y       0.467000
     39 H10          1.6840     2.6180     3.1230 ha         1 L7Y       0.115000
     40 H11          3.8770     2.1400     4.1710 ha         1 L7Y       0.113000
     41 H12          5.3800     0.4220     3.2030 ha         1 L7Y       0.126000
     42 H13          2.4430    -0.3830     0.1280 ha         1 L7Y       0.116000
     43 H14          5.8150    -3.3870    -0.1350 h1         1 L7Y       0.067450
     44 H15          4.8580    -3.1850    -1.6020 h1         1 L7Y       0.067450
     45 H16          7.6180    -1.9250    -1.0600 h1         1 L7Y       0.054200
     46 H17          7.2510    -3.2360    -2.2090 h1         1 L7Y       0.054200
     47 H18          6.7790     0.3380    -1.5620 h1         1 L7Y       0.054200
     48 H19          5.8170     0.5760    -3.0410 h1         1 L7Y       0.054200
     49 H20          3.9210    -0.6920    -2.1020 h1         1 L7Y       0.067450
     50 H21          4.4110     0.5610    -0.9500 h1         1 L7Y       0.067450
     51 H22         -1.9920     0.3890     1.0400 ha         1 L7Y       0.190000
     52 H5          -3.0550     3.9800    -2.0440 hn         1 L7Y       0.331500
@<TRIPOS>BOND
     1     1     2 1   
     2     2     3 ar  
     3     2     7 ar  
     4     3     4 ar  
     5     3    31 1   
     6     4     5 ar  
     7     4    32 1   
     8     5     6 ar  
     9     5     8 1   
    10     6     7 ar  
    11     6    33 1   
    12     7    34 1   
    13     8     9 2   
    14     8    30 1   
    15     9    10 1   
    16     9    35 1   
    17    10    11 1   
    18    10    52 1   
    19    11    12 2   
    20    11    13 1   
    21    13    14 1   
    22    13    30 2   
    23    14    15 1   
    24    14    36 1   
    25    14    37 1   
    26    15    16 1   
    27    15    38 1   
    28    16    17 ar  
    29    16    21 ar  
    30    17    18 ar  
    31    17    39 1   
    32    18    19 ar  
    33    18    40 1   
    34    19    20 ar  
    35    19    41 1   
    36    20    21 ar  
    37    20    22 1   
    38    21    42 1   
    39    22    23 2   
    40    22    24 1   
    41    24    25 1   
    42    24    29 1   
    43    25    26 1   
    44    25    43 1   
    45    25    44 1   
    46    26    27 1   
    47    26    45 1   
    48    26    46 1   
    49    27    28 1   
    50    28    29 1   
    51    28    47 1   
    52    28    48 1   
    53    29    49 1   
    54    29    50 1   
    55    30    51 1   
@<TRIPOS>SUBSTRUCTURE
     1 L7Y         1 TEMP              0 ****  ****    0 ROOT
