@<TRIPOS>MOLECULE
L7Y
   52    55     1     0     0
SMALL
bcc


@<TRIPOS>ATOM
      1 CL          -8.5270    -2.5820     0.2410 cl         1 L7Y      -0.105400
      2 C02         -7.1360    -1.5710     0.0350 ca         1 L7Y       0.027400
      3 C03         -6.7210    -1.2290    -1.2430 ca         1 L7Y      -0.115000
      4 C04         -5.6040    -0.4240    -1.3990 ca         1 L7Y      -0.118500
      5 C05         -4.8990     0.0600    -0.2960 ca         1 L7Y      -0.022800
      6 C06         -5.3400    -0.3040     0.9770 ca         1 L7Y      -0.118500
      7 C07         -6.4490    -1.1160     1.1490 ca         1 L7Y      -0.115000
      8 C08         -3.7280     0.9350    -0.4650 cc         1 L7Y      -0.146200
      9 C09         -3.6520     1.8400    -1.4810 cd         1 L7Y       0.041600
     10 N10         -2.5760     2.6400    -1.6230 ns         1 L7Y      -0.427100
     11 C11         -1.4690     2.6540    -0.7990 c          1 L7Y       0.698700
     12 O12         -0.5440     3.4320    -1.0090 o          1 L7Y      -0.611500
     13 C13         -1.5350     1.7020     0.2870 cd         1 L7Y      -0.241400
     14 C14         -0.3670     1.6230     1.2200 c3         1 L7Y       0.274000
     15 N15          0.7390     0.9490     0.5760 nu         1 L7Y      -0.748600
     16 C16          1.9590     0.8110     1.1890 ca         1 L7Y       0.175600
     17 C17          2.3330     1.5610     2.3110 ca         1 L7Y      -0.188000
     18 C18          3.5910     1.4010     2.8740 ca         1 L7Y      -0.093000
     19 C19          4.5010     0.4900     2.3620 ca         1 L7Y      -0.140000
     20 C20          4.1410    -0.2520     1.2380 ca         1 L7Y      -0.099600
     21 C21          2.8920    -0.0960     0.6610 ca         1 L7Y      -0.182000
     22 C22          5.0790    -1.3050     0.7360 c          1 L7Y       0.682700
     23 O23          5.4650    -2.1780     1.5050 o          1 L7Y      -0.597100
     24 N24          5.4280    -1.2660    -0.5660 n          1 L7Y      -0.474800
     25 C25          6.2540    -2.3110    -1.1500 c6         1 L7Y       0.058500
     26 C26          7.6020    -1.7420    -1.5560 c6         1 L7Y       0.106900
     27 O27          7.4500    -0.6460    -2.4320 os         1 L7Y      -0.400600
     28 C28          6.6810     0.3780    -1.8430 c6         1 L7Y       0.106900
     29 C29          5.2970    -0.1110    -1.4400 c6         1 L7Y       0.058500
     30 C30         -2.6200     0.8930     0.4250 cc         1 L7Y      -0.018000
     31 H1          -7.2520    -1.5930    -2.1110 ha         1 L7Y       0.149500
     32 H2          -5.2710    -0.1910    -2.4030 ha         1 L7Y       0.134500
     33 H3          -4.8270     0.0610     1.8580 ha         1 L7Y       0.134500
     34 H4          -6.7780    -1.3800     2.1450 ha         1 L7Y       0.149500
     35 H6          -4.4370     1.9870    -2.2080 h4         1 L7Y       0.155000
     36 H7          -0.0610     2.6360     1.4920 h1         1 L7Y       0.050200
     37 H8          -0.6710     1.1230     2.1470 h1         1 L7Y       0.050200
     38 H9           0.4690     0.1690    -0.0040 hn         1 L7Y       0.411800
     39 H10          1.6500     2.2700     2.7590 ha         1 L7Y       0.133000
     40 H11          3.8570     1.9940     3.7400 ha         1 L7Y       0.131000
     41 H12          5.4730     0.3650     2.8180 ha         1 L7Y       0.144000
     42 H13          2.6190    -0.6830    -0.2090 ha         1 L7Y       0.134000
     43 H14          6.3840    -3.1260    -0.4430 h1         1 L7Y       0.067450
     44 H15          5.7360    -2.7070    -2.0300 h1         1 L7Y       0.067450
     45 H16          8.1590    -1.4450    -0.6570 h1         1 L7Y       0.054200
     46 H17          8.1860    -2.5010    -2.0790 h1         1 L7Y       0.054200
     47 H18          7.1910     0.7810    -0.9560 h1         1 L7Y       0.054200
     48 H19          6.5880     1.1810    -2.5740 h1         1 L7Y       0.054200
     49 H20          4.7210    -0.3930    -2.3260 h1         1 L7Y       0.067450
     50 H21          4.7670     0.6960    -0.9400 h1         1 L7Y       0.067450
     51 H22         -2.6280     0.1770     1.2390 ha         1 L7Y       0.140000
     52 H5          -2.5760     3.3010    -2.3880 hn         1 L7Y       0.331500
@<TRIPOS>BOND
     1     1     2 1   
     2     2     3 ar  
     3     2     7 ar  
     4     3     4 ar  
     5     3    31 1   
     6     4     5 ar  
     7     4    32 1   
     8     5     6 ar  
     9     5     8 1   
    10     6     7 ar  
    11     6    33 1   
    12     7    34 1   
    13     8     9 2   
    14     8    30 1   
    15     9    10 1   
    16     9    35 1   
    17    10    11 1   
    18    10    52 1   
    19    11    12 2   
    20    11    13 1   
    21    13    14 1   
    22    13    30 2   
    23    14    15 1   
    24    14    36 1   
    25    14    37 1   
    26    15    16 1   
    27    15    38 1   
    28    16    17 ar  
    29    16    21 ar  
    30    17    18 ar  
    31    17    39 1   
    32    18    19 ar  
    33    18    40 1   
    34    19    20 ar  
    35    19    41 1   
    36    20    21 ar  
    37    20    22 1   
    38    21    42 1   
    39    22    23 2   
    40    22    24 1   
    41    24    25 1   
    42    24    29 1   
    43    25    26 1   
    44    25    43 1   
    45    25    44 1   
    46    26    27 1   
    47    26    45 1   
    48    26    46 1   
    49    27    28 1   
    50    28    29 1   
    51    28    47 1   
    52    28    48 1   
    53    29    49 1   
    54    29    50 1   
    55    30    51 1   
@<TRIPOS>SUBSTRUCTURE
     1 L7Y         1 TEMP              0 ****  ****    0 ROOT
