@<TRIPOS>MOLECULE
L7Z
   32    33     1     0     0
SMALL
abcg2


@<TRIPOS>ATOM
      1 C10        -31.3240    10.1590    13.5780 c          1 L7Z       0.579600
      2 C13        -32.8680    11.3230    14.9450 c          1 L7Z       0.579600
      3 C01        -31.7700    15.3620    16.4530 ca         1 L7Z      -0.108000
      4 C02        -31.7490    16.4090    15.5360 ca         1 L7Z      -0.068300
      5 C03        -31.3560    16.1230    14.2300 ca         1 L7Z      -0.108000
      6 C04        -31.0120    14.8340    13.8530 ca         1 L7Z      -0.095500
      7 C05        -31.0520    13.7830    14.7670 ca         1 L7Z      -0.091300
      8 C06        -31.4270    14.0720    16.0760 ca         1 L7Z      -0.095500
      9 C08        -30.6910    12.3870    14.3510 c3         1 L7Z      -0.008100
     10 C09        -31.8960    11.5480    13.8050 c5         1 L7Z      -0.262000
     11 C11        -31.5440     9.3010    14.8080 c5         1 L7Z      -0.185900
     12 C12        -32.4210    10.1240    15.7520 c5         1 L7Z      -0.185900
     13 O14        -30.7720     9.8010    12.5690 o          1 L7Z      -0.492100
     14 O15        -33.8470    11.9890    15.1620 o          1 L7Z      -0.492100
     15 C16        -32.5170    12.1690    12.5700 c3         1 L7Z      -0.062100
     16 H1         -32.0520    15.5570    17.4820 ha         1 L7Z       0.112000
     17 H2         -31.3110    16.9200    13.4980 ha         1 L7Z       0.112000
     18 H3         -30.6990    14.6450    12.8330 ha         1 L7Z       0.109000
     19 H4         -31.4410    13.2820    16.8190 ha         1 L7Z       0.109000
     20 H5         -33.2210    17.9570    15.7690 hc         1 L7Z       0.042700
     21 H6         -31.9610    17.9820    16.9920 hc         1 L7Z       0.042700
     22 H7         -31.6210    18.5530    15.3570 hc         1 L7Z       0.042700
     23 H8         -30.2250    11.8630    15.1910 hc         1 L7Z       0.055700
     24 H9         -29.9470    12.4190    13.5520 hc         1 L7Z       0.055700
     25 H10        -32.0260     8.3700    14.5040 hc         1 L7Z       0.078200
     26 H11        -30.5810     9.0270    15.2430 hc         1 L7Z       0.078200
     27 H12        -31.8570    10.4850    16.6180 hc         1 L7Z       0.078200
     28 H13        -33.2800     9.5780    16.1400 hc         1 L7Z       0.078200
     29 H14        -32.9670    13.1330    12.8030 hc         1 L7Z       0.050700
     30 H15        -31.7640    12.3270    11.7980 hc         1 L7Z       0.050700
     31 H16        -33.2960    11.5280    12.1580 hc         1 L7Z       0.050700
     32 C07        -32.1540    17.7980    15.9360 c3         1 L7Z      -0.047800
@<TRIPOS>BOND
     1     1    10 1   
     2     1    11 1   
     3     1    13 2   
     4     2    10 1   
     5     2    12 1   
     6     2    14 2   
     7     3     4 ar  
     8     3     8 ar  
     9     3    16 1   
    10     4     5 ar  
    11     4    32 1   
    12     5     6 ar  
    13     5    17 1   
    14     6     7 ar  
    15     6    18 1   
    16     7     8 ar  
    17     7     9 1   
    18     8    19 1   
    19     9    10 1   
    20     9    23 1   
    21     9    24 1   
    22    10    15 1   
    23    11    12 1   
    24    11    25 1   
    25    11    26 1   
    26    12    27 1   
    27    12    28 1   
    28    15    29 1   
    29    15    30 1   
    30    15    31 1   
    31    20    32 1   
    32    21    32 1   
    33    22    32 1   
@<TRIPOS>SUBSTRUCTURE
     1 L7Z         1 TEMP              0 ****  ****    0 ROOT
