@<TRIPOS>MOLECULE
L7Z
   32    33     1     0     0
SMALL
No Charge or Current Charge


@<TRIPOS>ATOM
      1 C10        -31.4990    10.0640    13.5070 c          1 L7Z       0.579600
      2 C13        -32.9530    11.2180    14.8940 c          1 L7Z       0.579600
      3 C01        -31.9160    15.3450    16.4370 ca         1 L7Z      -0.108000
      4 C02        -31.7330    16.4200    15.5480 ca         1 L7Z      -0.068300
      5 C03        -31.2090    16.1720    14.2660 ca         1 L7Z      -0.108000
      6 C04        -30.8710    14.8640    13.8780 ca         1 L7Z      -0.095500
      7 C05        -31.0570    13.7870    14.7650 ca         1 L7Z      -0.091300
      8 C06        -31.5770    14.0370    16.0500 ca         1 L7Z      -0.095500
      9 C08        -30.6920    12.3670    14.3430 c3         1 L7Z      -0.008100
     10 C09        -31.9000    11.5260    13.8080 c5         1 L7Z      -0.262000
     11 C11        -31.3750     9.3540    14.8660 c5         1 L7Z      -0.185900
     12 C12        -32.3390    10.1410    15.8030 c5         1 L7Z      -0.185900
     13 O14        -31.5710     9.5010    12.4240 o          1 L7Z      -0.492100
     14 O15        -34.1380    11.5180    14.8620 o          1 L7Z      -0.492100
     15 C16        -32.5330    12.2180    12.5580 c3         1 L7Z      -0.062100
     16 H1         -32.3200    15.5220    17.4320 ha         1 L7Z       0.112000
     17 H2         -31.0650    16.9930    13.5670 ha         1 L7Z       0.112000
     18 H3         -30.4680    14.6890    12.8820 ha         1 L7Z       0.109000
     19 H4         -31.7200    13.2190    16.7520 ha         1 L7Z       0.109000
     20 H5         -33.1470    18.0550    15.7140 hc         1 L7Z       0.042700
     21 H6         -31.9820    17.9760    17.0470 hc         1 L7Z       0.042700
     22 H7         -31.4720    18.5780    15.4650 hc         1 L7Z       0.042700
     23 H8         -30.2030    11.8680    15.1880 hc         1 L7Z       0.055700
     24 H9         -29.9170    12.4100    13.5670 hc         1 L7Z       0.055700
     25 H10        -31.5890     8.2840    14.7690 hc         1 L7Z       0.078200
     26 H11        -30.3490     9.4860    15.2270 hc         1 L7Z       0.078200
     27 H12        -31.7420    10.6430    16.5730 hc         1 L7Z       0.078200
     28 H13        -33.1180     9.5380    16.2820 hc         1 L7Z       0.078200
     29 H14        -32.9570    13.1970    12.8090 hc         1 L7Z       0.050700
     30 H15        -31.7890    12.3710    11.7660 hc         1 L7Z       0.050700
     31 H16        -33.3450    11.6150    12.1320 hc         1 L7Z       0.050700
     32 C07        -32.1030    17.8340    15.9670 c3         1 L7Z      -0.047800
@<TRIPOS>BOND
     1     1    10 1   
     2     1    11 1   
     3     1    13 2   
     4     2    10 1   
     5     2    12 1   
     6     2    14 2   
     7     3     4 ar  
     8     3     8 ar  
     9     3    16 1   
    10     4     5 ar  
    11     4    32 1   
    12     5     6 ar  
    13     5    17 1   
    14     6     7 ar  
    15     6    18 1   
    16     7     8 ar  
    17     7     9 1   
    18     8    19 1   
    19     9    10 1   
    20     9    23 1   
    21     9    24 1   
    22    10    15 1   
    23    11    12 1   
    24    11    25 1   
    25    11    26 1   
    26    12    27 1   
    27    12    28 1   
    28    15    29 1   
    29    15    30 1   
    30    15    31 1   
    31    20    32 1   
    32    21    32 1   
    33    22    32 1   
@<TRIPOS>SUBSTRUCTURE
     1 L7Z         1 TEMP              0 ****  ****    0 ROOT
