@<TRIPOS>MOLECULE
L80
   59    64     1     0     0
SMALL
No Charge or Current Charge


@<TRIPOS>ATOM
      1 F2           6.6910    -7.6640    16.8240 f          1 L80      -0.259000
      2 C15          5.7340    -7.2010    15.8950 c6         1 L80       0.199300
      3 C16          5.7750    -8.1240    14.6470 c6         1 L80       0.129800
      4 N5           4.8660    -7.6520    13.5430 n3         1 L80      -0.731600
      5 C17          4.7900    -8.6230    12.3750 c5         1 L80       0.096500
      6 C20          3.9970    -9.8810    12.8580 c5         1 L80       0.141300
      7 O1           3.0480    -9.4460    13.8340 oh         1 L80      -0.717000
      8 C19          3.3420   -10.3820    11.5240 c5         1 L80       0.143600
      9 O            3.4220    -9.2860    10.5760 os         1 L80      -0.451000
     10 C18          3.7920    -8.0960    11.2990 c5         1 L80       0.158600
     11 C21          5.2390    -6.2540    13.1570 c6         1 L80       0.166800
     12 C22          5.1590    -5.2820    14.3600 c6         1 L80      -0.073400
     13 C14          6.0810    -5.7380    15.5210 c6         1 L80      -0.054400
     14 C13          5.9960    -4.7830    16.7340 ca         1 L80      -0.019300
     15 C            7.1130    -4.0360    17.1920 ca         1 L80       0.098000
     16 Cl           8.6970    -4.1260    16.4170 cl         1 L80      -0.201000
     17 C12          4.7630    -4.6450    17.4120 ca         1 L80      -0.098000
     18 C11          4.6270    -3.7930    18.5210 ca         1 L80       0.086000
     19 C2           5.7490    -3.0610    18.9600 ca         1 L80      -0.194000
     20 C1           6.9830    -3.1810    18.3000 ca         1 L80      -0.044000
     21 N4           3.4460    -3.6690    19.1620 nb         1 L80      -0.242000
     22 C4           3.3960    -2.8340    20.2170 ca         1 L80       0.392900
     23 N            4.4080    -2.0970    20.7040 nb         1 L80      -0.220000
     24 C3           5.5910    -2.2130    20.0720 ca         1 L80       0.180900
     25 N1           2.1870    -2.6850    20.8890 nu         1 L80      -0.893900
     26 C5           0.9120    -3.2370    20.7460 cc         1 L80       0.217000
     27 C10          0.5340    -4.3040    19.8810 cc         1 L80       0.259900
     28 N3          -0.7460    -4.6380    19.9410 nd         1 L80      -0.494800
     29 N2          -1.2110    -3.7400    20.8860 na         1 L80       0.160800
     30 C6          -0.2310    -2.8830    21.3950 cd         1 L80      -0.018000
     31 Cl1         -0.4690    -1.6480    22.5990 cl         1 L80      -0.123000
     32 C7          -2.6040    -3.6740    21.3420 cx         1 L80      -0.021700
     33 C9          -3.8270    -3.9410    20.4910 cx         1 L80      -0.141400
     34 C8          -3.5720    -2.5580    21.0300 cx         1 L80       0.146000
     35 F           -3.2050    -1.5640    20.1740 f          1 L80      -0.071000
     36 F1          -4.3660    -2.0650    22.0200 f          1 L80      -0.071000
     37 H3           4.7460    -7.2630    16.3700 h1         1 L80       0.068700
     38 H13          5.5080    -9.1390    14.9720 h1         1 L80       0.054200
     39 H12          6.8110    -8.1760    14.2810 h1         1 L80       0.054200
     40 H4           5.7700    -8.8720    11.9450 h1         1 L80       0.048700
     41 H5           4.6670   -10.6390    13.2880 h1         1 L80       0.055700
     42 H18          3.4450    -8.5540    14.0460 ho         1 L80       0.531000
     43 H17          2.2910   -10.6670    11.6670 h1         1 L80       0.057700
     44 H16          3.8790   -11.2460    11.1100 h1         1 L80       0.057700
     45 H15          4.2440    -7.3670    10.6140 h1         1 L80       0.052700
     46 H14          2.8920    -7.6550    11.7480 h1         1 L80       0.052700
     47 H20          6.2580    -6.2330    12.7420 h1         1 L80       0.043700
     48 H19          4.5680    -5.8680    12.3770 h1         1 L80       0.043700
     49 H22          5.4440    -4.2730    14.0330 hc         1 L80       0.061700
     50 H21          4.1160    -5.2180    14.6960 hc         1 L80       0.061700
     51 H2           7.1030    -5.7530    15.1230 hc         1 L80       0.079700
     52 H11          3.8930    -5.2040    17.0780 ha         1 L80       0.138000
     53 H6           7.8460    -2.6130    18.6430 ha         1 L80       0.133000
     54 H7           6.4170    -1.6200    20.4620 h4         1 L80       0.028100
     55 H1           2.2370    -1.9830    21.6310 hn         1 L80       0.525000
     56 H10          1.1680    -4.8580    19.2050 h4         1 L80       0.070100
     57 H           -2.6090    -4.0630    22.3600 h1         1 L80       0.121700
     58 H8          -3.6800    -4.1000    19.4250 hc         1 L80       0.113700
     59 H9          -4.6360    -4.5160    20.9320 hc         1 L80       0.113700
@<TRIPOS>BOND
     1     1     2 1   
     2     2     3 1   
     3     2    13 1   
     4     2    37 1   
     5     3     4 1   
     6     3    38 1   
     7     3    39 1   
     8     4     5 1   
     9     4    11 1   
    10     5     6 1   
    11     5    10 1   
    12     5    40 1   
    13     6     7 1   
    14     6     8 1   
    15     6    41 1   
    16     7    42 1   
    17     8     9 1   
    18     8    43 1   
    19     8    44 1   
    20     9    10 1   
    21    10    45 1   
    22    10    46 1   
    23    11    12 1   
    24    11    47 1   
    25    11    48 1   
    26    12    13 1   
    27    12    49 1   
    28    12    50 1   
    29    13    14 1   
    30    13    51 1   
    31    14    15 ar  
    32    14    17 ar  
    33    15    16 1   
    34    15    20 ar  
    35    17    18 ar  
    36    17    52 1   
    37    18    19 ar  
    38    18    21 ar  
    39    19    20 ar  
    40    19    24 ar  
    41    20    53 1   
    42    21    22 ar  
    43    22    23 ar  
    44    22    25 1   
    45    23    24 ar  
    46    24    54 1   
    47    25    26 1   
    48    25    55 1   
    49    26    27 1   
    50    26    30 2   
    51    27    28 2   
    52    27    56 1   
    53    28    29 1   
    54    29    30 1   
    55    29    32 1   
    56    30    31 1   
    57    32    33 1   
    58    32    34 1   
    59    32    57 1   
    60    33    34 1   
    61    33    58 1   
    62    33    59 1   
    63    34    35 1   
    64    34    36 1   
@<TRIPOS>SUBSTRUCTURE
     1 L80         1 TEMP              0 ****  ****    0 ROOT
