@<TRIPOS>MOLECULE
L80
   59    64     1     0     0
SMALL
abcg2


@<TRIPOS>ATOM
      1 F2           5.3320    -7.7870    17.1980 f          1 L80      -0.259000
      2 C15          5.0100    -7.1950    15.9780 c6         1 L80       0.199300
      3 C16          5.2060    -8.2200    14.8770 c6         1 L80       0.129800
      4 N5           4.8430    -7.6420    13.5910 n3         1 L80      -0.731600
      5 C17          4.8130    -8.6520    12.5520 c5         1 L80       0.096500
      6 C20          3.5890    -9.5690    12.6990 c5         1 L80       0.141300
      7 O1           2.4510    -8.8000    13.0000 oh         1 L80      -0.717000
      8 C19          3.4950   -10.1510    11.3030 c5         1 L80       0.143600
      9 O            3.9820    -9.1570    10.4120 os         1 L80      -0.451000
     10 C18          4.5800    -8.1040    11.1410 c5         1 L80       0.158600
     11 C21          5.7020    -6.5030    13.2880 c6         1 L80       0.166800
     12 C22          5.5720    -5.4300    14.3560 c6         1 L80      -0.073400
     13 C14          5.8970    -5.9890    15.7480 c6         1 L80      -0.054400
     14 C13          5.7910    -4.9190    16.8030 ca         1 L80      -0.019300
     15 C            6.8940    -4.0720    17.0880 ca         1 L80       0.098000
     16 CL           8.3970    -4.2910    16.2470 cl         1 L80      -0.201000
     17 C12          4.6180    -4.6990    17.4850 ca         1 L80      -0.098000
     18 C11          4.4990    -3.6820    18.4510 ca         1 L80       0.086000
     19 C2           5.6140    -2.8640    18.7070 ca         1 L80      -0.194000
     20 C1           6.8170    -3.0670    18.0130 ca         1 L80      -0.044000
     21 N4           3.3350    -3.5090    19.1120 nb         1 L80      -0.242000
     22 C4           3.2920    -2.5490    19.9980 ca         1 L80       0.392900
     23 N            4.3030    -1.6900    20.3130 nb         1 L80      -0.220000
     24 C3           5.4250    -1.8540    19.6810 ca         1 L80       0.180900
     25 N1           2.1590    -2.3290    20.7100 nu         1 L80      -0.893900
     26 C5           0.9880    -3.0620    20.6670 cc         1 L80       0.217000
     27 C10          0.6200    -4.2040    19.9210 cc         1 L80       0.259900
     28 N3          -0.6080    -4.5890    20.2120 nd         1 L80      -0.494800
     29 N2          -1.0630    -3.7320    21.1150 na         1 L80       0.160800
     30 C6          -0.1350    -2.7970    21.4190 cd         1 L80      -0.018000
     31 CL1         -0.4140    -1.5720    22.5590 cl         1 L80      -0.123000
     32 C7          -2.3430    -3.8780    21.7160 cx         1 L80      -0.021700
     33 C9          -3.4980    -4.3320    20.8330 cx         1 L80      -0.141400
     34 C8          -3.4260    -2.9500    21.3110 cx         1 L80       0.146000
     35 F           -3.1380    -1.9690    20.4450 f          1 L80      -0.071000
     36 F1          -4.2810    -2.4940    22.2380 f          1 L80      -0.071000
     37 H3           3.9530    -6.9150    16.0140 h1         1 L80       0.068700
     38 H13          4.5710    -9.0820    15.0880 h1         1 L80       0.054200
     39 H12          6.2500    -8.5730    14.8810 h1         1 L80       0.054200
     40 H4           5.7270    -9.2670    12.5540 h1         1 L80       0.048700
     41 H5           3.7420   -10.3630    13.4400 h1         1 L80       0.055700
     42 H18          2.7780    -8.0020    13.4430 ho         1 L80       0.531000
     43 H17          2.4700   -10.4240    11.0400 h1         1 L80       0.057700
     44 H16          4.1120   -11.0540    11.2330 h1         1 L80       0.057700
     45 H15          5.5090    -7.8080    10.6490 h1         1 L80       0.052700
     46 H14          3.9200    -7.2280    11.1720 h1         1 L80       0.052700
     47 H20          6.7560    -6.8130    13.2030 h1         1 L80       0.043700
     48 H19          5.4140    -6.0740    12.3290 h1         1 L80       0.043700
     49 H22          6.2450    -4.6060    14.1180 hc         1 L80       0.061700
     50 H21          4.5550    -5.0290    14.3540 hc         1 L80       0.061700
     51 H2           6.9270    -6.3600    15.7230 hc         1 L80       0.079700
     52 H11          3.7440    -5.3080    17.2960 ha         1 L80       0.138000
     53 H6           7.6690    -2.4310    18.2170 ha         1 L80       0.133000
     54 H7           6.2390    -1.1780    19.9250 h4         1 L80       0.028100
     55 H1           2.2070    -1.5640    21.3660 hn         1 L80       0.525000
     56 H10          1.2070    -4.7390    19.1970 h4         1 L80       0.070100
     57 H           -2.3350    -4.2380    22.7400 h1         1 L80       0.121700
     58 H8          -3.2850    -4.5180    19.7880 hc         1 L80       0.113700
     59 H9          -4.2070    -5.0100    21.2890 hc         1 L80       0.113700
@<TRIPOS>BOND
     1     1     2 1   
     2     2     3 1   
     3     2    13 1   
     4     2    37 1   
     5     3     4 1   
     6     3    38 1   
     7     3    39 1   
     8     4     5 1   
     9     4    11 1   
    10     5     6 1   
    11     5    10 1   
    12     5    40 1   
    13     6     7 1   
    14     6     8 1   
    15     6    41 1   
    16     7    42 1   
    17     8     9 1   
    18     8    43 1   
    19     8    44 1   
    20     9    10 1   
    21    10    45 1   
    22    10    46 1   
    23    11    12 1   
    24    11    47 1   
    25    11    48 1   
    26    12    13 1   
    27    12    49 1   
    28    12    50 1   
    29    13    14 1   
    30    13    51 1   
    31    14    15 ar  
    32    14    17 ar  
    33    15    16 1   
    34    15    20 ar  
    35    17    18 ar  
    36    17    52 1   
    37    18    19 ar  
    38    18    21 ar  
    39    19    20 ar  
    40    19    24 ar  
    41    20    53 1   
    42    21    22 ar  
    43    22    23 ar  
    44    22    25 1   
    45    23    24 ar  
    46    24    54 1   
    47    25    26 1   
    48    25    55 1   
    49    26    27 1   
    50    26    30 2   
    51    27    28 2   
    52    27    56 1   
    53    28    29 1   
    54    29    30 1   
    55    29    32 1   
    56    30    31 1   
    57    32    33 1   
    58    32    34 1   
    59    32    57 1   
    60    33    34 1   
    61    33    58 1   
    62    33    59 1   
    63    34    35 1   
    64    34    36 1   
@<TRIPOS>SUBSTRUCTURE
     1 L80         1 TEMP              0 ****  ****    0 ROOT
