@<TRIPOS>MOLECULE
L81
   43    46     1     0     0
SMALL
No Charge or Current Charge


@<TRIPOS>ATOM
      1 C1           2.2760     3.1160     0.3620 c3         1 L81      -0.078600
      2 C19          3.7520     1.9150     2.0140 c3         1 L81      -0.078600
      3 C2           3.2130     1.8970     0.5620 c5         1 L81       0.005300
      4 C3           4.3800     1.8460    -0.5220 c5         1 L81       0.191800
      5 C4           2.5340     0.5860     0.2470 ca         1 L81      -0.193300
      6 C5           1.2630     0.1510     0.6500 ca         1 L81       0.003000
      7 C6           0.7990    -1.1140     0.2170 ca         1 L81      -0.229600
      8 C7          -0.5600    -1.5960     0.6510 c          1 L81       0.638700
      9 O8          -0.7170    -2.7010     1.1560 o          1 L81      -0.589100
     10 N9          -1.6230    -0.6750     0.5920 n          1 L81      -0.417800
     11 C10         -2.9870    -1.0480     1.0950 c5         1 L81       0.154800
     12 C11         -3.8600    -0.1020     0.3160 ca         1 L81      -0.101300
     13 C12         -5.2590     0.0030     0.3810 ca         1 L81      -0.091000
     14 C13         -5.9080     0.9520    -0.4340 ca         1 L81      -0.108500
     15 C14         -5.1560     1.7780    -1.2960 ca         1 L81      -0.108500
     16 C15         -3.7530     1.6570    -1.3460 ca         1 L81      -0.091000
     17 C16         -3.1260     0.7040    -0.5270 ca         1 L81      -0.101300
     18 C17         -1.6500     0.4240    -0.4310 c5         1 L81       0.154800
     19 C18          1.6340    -1.9170    -0.5960 ca         1 L81       0.215100
     20 O19          1.2100    -3.1260    -1.0560 oh         1 L81      -0.517100
     21 C20          2.9050    -1.4610    -0.9810 ca         1 L81      -0.272000
     22 C21          3.3260    -0.2100    -0.5380 ca         1 L81       0.333000
     23 N5           4.5360     0.3800    -0.8190 nu         1 L81      -0.922200
     24 H11C         1.8320     3.1130    -0.6410 hc         1 L81       0.038867
     25 HA2          1.4530     3.1160     1.0880 hc         1 L81       0.038867
     26 HB3          2.8230     4.0590     0.4800 hc         1 L81       0.038867
     27 HA1          4.0730     2.3880    -1.4280 h1         1 L81       0.044700
     28 HB2          5.3070     2.3140    -0.1630 h1         1 L81       0.044700
     29 HB1          2.9360     1.8530     2.7430 hc         1 L81       0.038867
     30 HC2          4.4230     1.0670     2.1970 hc         1 L81       0.038867
     31 HD3          4.3160     2.8330     2.2180 hc         1 L81       0.038867
     32 HA           5.0000     0.0540    -1.6700 hn         1 L81       0.467000
     33 H5           0.6540     0.7750     1.3010 ha         1 L81       0.121000
     34 HC1         -3.2400    -2.0930     0.8710 h1         1 L81       0.061700
     35 HD2         -3.0770    -0.8830     2.1770 h1         1 L81       0.061700
     36 HD1         -1.1060     1.3160    -0.0950 h1         1 L81       0.061700
     37 HE2         -1.2420     0.0960    -1.3960 h1         1 L81       0.061700
     38 HB          -5.8330    -0.6370     1.0470 ha         1 L81       0.117000
     39 HC          -6.9910     1.0490    -0.3980 ha         1 L81       0.113500
     40 HD          -5.6600     2.5100    -1.9240 ha         1 L81       0.113500
     41 HE          -3.1670     2.2910    -2.0080 ha         1 L81       0.117000
     42 HF           1.9310    -3.5170    -1.5910 ho         1 L81       0.465000
     43 HG           3.5550    -2.0630    -1.6090 ha         1 L81       0.120000
@<TRIPOS>BOND
     1     1     3 1   
     2     1    24 1   
     3     1    25 1   
     4     1    26 1   
     5     2     3 1   
     6     2    29 1   
     7     2    30 1   
     8     2    31 1   
     9     3     4 1   
    10     3     5 1   
    11     4    23 1   
    12     4    27 1   
    13     4    28 1   
    14     5     6 ar  
    15     5    22 ar  
    16     6     7 ar  
    17     6    33 1   
    18     7     8 1   
    19     7    19 ar  
    20     8     9 2   
    21     8    10 1   
    22    10    11 1   
    23    10    18 1   
    24    11    12 1   
    25    11    34 1   
    26    11    35 1   
    27    12    13 ar  
    28    12    17 ar  
    29    13    14 ar  
    30    13    38 1   
    31    14    15 ar  
    32    14    39 1   
    33    15    16 ar  
    34    15    40 1   
    35    16    17 ar  
    36    16    41 1   
    37    17    18 1   
    38    18    36 1   
    39    18    37 1   
    40    19    20 1   
    41    19    21 ar  
    42    20    42 1   
    43    21    22 ar  
    44    21    43 1   
    45    22    23 1   
    46    23    32 1   
@<TRIPOS>SUBSTRUCTURE
     1 L81         1 TEMP              0 ****  ****    0 ROOT
