@<TRIPOS>MOLECULE
L81
   43    46     1     0     0
SMALL
bcc


@<TRIPOS>ATOM
      1 C1           2.4940     3.2220     0.5600 c3         1 L81      -0.078600
      2 C19          3.9950     1.7540     1.9380 c3         1 L81      -0.078600
      3 C2           3.2980     1.9290     0.5830 c5         1 L81       0.005300
      4 C3           4.3320     1.8710    -0.5660 c5         1 L81       0.191800
      5 C4           2.4790     0.6960     0.2740 ca         1 L81      -0.193300
      6 C5           1.2510     0.2850     0.7310 ca         1 L81      -0.015000
      7 C6           0.7290    -0.9540     0.3420 ca         1 L81      -0.229600
      8 C7          -0.5780    -1.4290     0.8800 c          1 L81       0.705700
      9 O8          -0.6640    -2.4100     1.6090 o          1 L81      -0.589100
     10 N9          -1.6600    -0.7060     0.5410 n          1 L81      -0.484800
     11 C10         -2.9850    -1.0890     1.0190 c5         1 L81       0.154800
     12 C11         -3.8880    -0.1940     0.2300 ca         1 L81      -0.101300
     13 C12         -5.2710    -0.1150     0.2620 ca         1 L81      -0.109000
     14 C13         -5.9070     0.7960    -0.5730 ca         1 L81      -0.126500
     15 C14         -5.1660     1.6130    -1.4230 ca         1 L81      -0.126500
     16 C15         -3.7800     1.5310    -1.4500 ca         1 L81      -0.109000
     17 C16         -3.1510     0.6200    -0.6160 ca         1 L81      -0.101300
     18 C17         -1.6860     0.3600    -0.4590 c5         1 L81       0.154800
     19 C18          1.4730    -1.7680    -0.5140 ca         1 L81       0.215100
     20 O19          0.9250    -2.9420    -0.8850 oh         1 L81      -0.478100
     21 C20          2.7200    -1.3620    -0.9930 ca         1 L81      -0.290000
     22 C21          3.2130    -0.1310    -0.5850 ca         1 L81       0.194600
     23 N5           4.4160     0.4530    -0.8960 nu         1 L81      -0.728600
     24 H11C         1.9610     3.3360    -0.3850 hc         1 L81       0.038867
     25 HA2          1.7580     3.2440     1.3660 hc         1 L81       0.038867
     26 HB3          3.1440     4.0890     0.6870 hc         1 L81       0.038867
     27 HA1          3.9770     2.4540    -1.4250 h1         1 L81       0.044700
     28 HB2          5.3030     2.2690    -0.2690 h1         1 L81       0.044700
     29 HB1          3.2610     1.6840     2.7430 hc         1 L81       0.038867
     30 HC2          4.6010     0.8470     1.9580 hc         1 L81       0.038867
     31 HD3          4.6510     2.6010     2.1510 hc         1 L81       0.038867
     32 HA           4.8610     0.1990    -1.7640 hn         1 L81       0.411800
     33 H5           0.6810     0.9180     1.4030 ha         1 L81       0.139000
     34 HC1         -3.1830    -2.1470     0.8270 h1         1 L81       0.061700
     35 HD2         -3.0810    -0.9330     2.0980 h1         1 L81       0.061700
     36 HD1         -1.1600     1.2560    -0.1190 h1         1 L81       0.061700
     37 HE2         -1.2180     0.0430    -1.3950 h1         1 L81       0.061700
     38 HB          -5.8500    -0.7490     0.9230 ha         1 L81       0.135000
     39 HC          -6.9860     0.8730    -0.5610 ha         1 L81       0.131500
     40 HD          -5.6760     2.3180    -2.0670 ha         1 L81       0.131500
     41 HE          -3.2030     2.1670    -2.1100 ha         1 L81       0.135000
     42 HF           1.5070    -3.4040    -1.5000 ho         1 L81       0.426000
     43 HG           3.2800    -1.9940    -1.6730 ha         1 L81       0.138000
@<TRIPOS>BOND
     1     1     3 1   
     2     1    24 1   
     3     1    25 1   
     4     1    26 1   
     5     2     3 1   
     6     2    29 1   
     7     2    30 1   
     8     2    31 1   
     9     3     4 1   
    10     3     5 1   
    11     4    23 1   
    12     4    27 1   
    13     4    28 1   
    14     5     6 ar  
    15     5    22 ar  
    16     6     7 ar  
    17     6    33 1   
    18     7     8 1   
    19     7    19 ar  
    20     8     9 2   
    21     8    10 1   
    22    10    11 1   
    23    10    18 1   
    24    11    12 1   
    25    11    34 1   
    26    11    35 1   
    27    12    13 ar  
    28    12    17 ar  
    29    13    14 ar  
    30    13    38 1   
    31    14    15 ar  
    32    14    39 1   
    33    15    16 ar  
    34    15    40 1   
    35    16    17 ar  
    36    16    41 1   
    37    17    18 1   
    38    18    36 1   
    39    18    37 1   
    40    19    20 1   
    41    19    21 ar  
    42    20    42 1   
    43    21    22 ar  
    44    21    43 1   
    45    22    23 1   
    46    23    32 1   
@<TRIPOS>SUBSTRUCTURE
     1 L81         1 TEMP              0 ****  ****    0 ROOT
