@<TRIPOS>MOLECULE
L82
   59    62     1     0     0
SMALL
No Charge or Current Charge


@<TRIPOS>ATOM
      1 C4         -29.2990   -33.3530    12.8440 c3         1 L82      -0.094400
      2 C14        -33.5630   -35.3190    10.7510 c3         1 L82       0.114000
      3 C5         -27.7540   -33.3650    12.7950 c3         1 L82       0.104000
      4 C6         -26.4470   -33.2700    14.9980 cc         1 L82       0.407500
      5 C11        -27.3270   -36.9570    15.4050 ca         1 L82      -0.118500
      6 C7         -26.3410   -34.7200    15.2410 ca         1 L82      -0.116900
      7 C8         -25.1220   -35.2530    15.7180 ca         1 L82      -0.075000
      8 C9         -24.9980   -36.6240    16.0020 ca         1 L82      -0.118500
      9 C10        -26.0980   -37.4790    15.8390 ca         1 L82      -0.097000
     10 C12        -27.4510   -35.5860    15.1210 ca         1 L82      -0.075000
     11 C13        -26.9080   -31.3170    13.9750 cs         1 L82       0.371400
     12 N1         -27.1260   -32.6710    13.9360 n          1 L82      -0.230300
     13 N2         -25.8170   -32.3520    15.7120 nd         1 L82      -0.505300
     14 C3         -29.9380   -34.2990    11.7970 c3         1 L82      -0.044400
     15 N3         -26.1240   -31.1770    15.0830 ns         1 L82      -0.282400
     16 C1         -32.1080   -32.9210    11.7530 c          1 L82       0.717000
     17 C15        -34.0110   -34.3100     9.6760 ca         1 L82       0.373800
     18 C16        -33.2300   -34.0830     8.5230 ca         1 L82      -0.118000
     19 C17        -33.6870   -33.1870     7.5440 ca         1 L82      -0.083500
     20 C18        -34.9220   -32.5550     7.7550 ca         1 L82      -0.183500
     21 C19        -35.6490   -32.8410     8.9230 ca         1 L82       0.329400
     22 C2         -31.4980   -34.3800    11.8710 c3         1 L82       0.037500
     23 C21        -32.0460   -37.9580    10.3520 ca         1 L82       0.373800
     24 C22        -31.5750   -37.8560     9.0280 ca         1 L82      -0.118000
     25 C23        -31.8890   -38.8650     8.1040 ca         1 L82      -0.083500
     26 C24        -32.6650   -39.9470     8.5490 ca         1 L82      -0.183500
     27 C25        -33.0950   -39.9800     9.8870 ca         1 L82       0.329400
     28 N4         -32.0810   -35.4580    10.9690 n3         1 L82      -0.702600
     29 N5         -35.2150   -33.7070     9.8670 nb         1 L82      -0.680500
     30 N6         -32.7960   -39.0090    10.7800 nb         1 L82      -0.680500
     31 O2         -31.7890   -32.2140    10.8040 o          1 L82      -0.709000
     32 S1         -27.3900   -30.1080    12.9250 s          1 L82      -0.595400
     33 H1         -29.6410   -32.3250    12.6800 hc         1 L82       0.074700
     34 H2         -29.6450   -33.6370    13.8440 hc         1 L82       0.074700
     35 H3         -34.0530   -35.0720    11.7020 h1         1 L82       0.045450
     36 H4         -33.9910   -36.2800    10.4390 h1         1 L82       0.045450
     37 H5         -27.3930   -34.4010    12.7620 h1         1 L82       0.065700
     38 H6         -27.4220   -32.8880    11.8630 h1         1 L82       0.065700
     39 H7         -28.1880   -37.6140    15.3000 ha         1 L82       0.116000
     40 H8         -24.2590   -34.6040    15.8550 ha         1 L82       0.132500
     41 H9         -24.0480   -37.0220    16.3530 ha         1 L82       0.116000
     42 H10        -26.0040   -38.5400    16.0610 ha         1 L82       0.110000
     43 H11        -28.4220   -35.2050    14.8260 ha         1 L82       0.132500
     44 H12        -29.4950   -35.2870    11.9500 hc         1 L82       0.025700
     45 H13        -29.6400   -33.9790    10.7910 hc         1 L82       0.025700
     46 H14        -25.7780   -30.2590    15.3780 hn         1 L82       0.497000
     47 H15        -32.2810   -34.5960     8.4000 ha         1 L82       0.145000
     48 H16        -33.1010   -32.9900     6.6490 ha         1 L82       0.105500
     49 H17        -35.3170   -31.8530     7.0260 ha         1 L82       0.104500
     50 H18        -36.6130   -32.3680     9.1060 h4         1 L82       0.000100
     51 H19        -31.7270   -34.6900    12.9000 h1         1 L82       0.008700
     52 H20        -32.2130   -37.1000    12.3290 h1         1 L82       0.045450
     53 H21        -30.6420   -36.9480    11.5660 h1         1 L82       0.045450
     54 H22        -30.9780   -36.9980     8.7310 ha         1 L82       0.145000
     55 H23        -31.5400   -38.8110     7.0750 ha         1 L82       0.105500
     56 H24        -32.9340   -40.7530     7.8720 ha         1 L82       0.104500
     57 H25        -33.6980   -40.8080    10.2570 h4         1 L82       0.000100
     58 C20        -31.7170   -36.8590    11.3790 c3         1 L82       0.114000
     59 O1         -32.8620   -32.5390    12.6400 o          1 L82      -0.709000
@<TRIPOS>BOND
     1     1     3 1   
     2     1    14 1   
     3     1    33 1   
     4     1    34 1   
     5     2    17 1   
     6     2    28 1   
     7     2    35 1   
     8     2    36 1   
     9     3    12 1   
    10     3    37 1   
    11     3    38 1   
    12     4     6 1   
    13     4    12 1   
    14     4    13 2   
    15     5     9 ar  
    16     5    10 ar  
    17     5    39 1   
    18     6     7 ar  
    19     6    10 ar  
    20     7     8 ar  
    21     7    40 1   
    22     8     9 ar  
    23     8    41 1   
    24     9    42 1   
    25    10    43 1   
    26    11    12 1   
    27    11    15 1   
    28    11    32 2   
    29    13    15 1   
    30    14    22 1   
    31    14    44 1   
    32    14    45 1   
    33    15    46 1   
    34    16    22 1   
    35    16    31 1   
    36    16    59 1   
    37    17    18 ar  
    38    17    29 ar  
    39    18    19 ar  
    40    18    47 1   
    41    19    20 ar  
    42    19    48 1   
    43    20    21 ar  
    44    20    49 1   
    45    21    29 ar  
    46    21    50 1   
    47    22    28 1   
    48    22    51 1   
    49    23    24 ar  
    50    23    30 ar  
    51    23    58 1   
    52    24    25 ar  
    53    24    54 1   
    54    25    26 ar  
    55    25    55 1   
    56    26    27 ar  
    57    26    56 1   
    58    27    30 ar  
    59    27    57 1   
    60    28    58 1   
    61    52    58 1   
    62    53    58 1   
@<TRIPOS>SUBSTRUCTURE
     1 L82         1 TEMP              0 ****  ****    0 ROOT
