@<TRIPOS>MOLECULE
L82
   59    62     1     0     0
SMALL
abcg2


@<TRIPOS>ATOM
      1 C4         -28.9750   -33.6580    12.5390 c3         1 L82      -0.094400
      2 C14        -33.2810   -35.4700    10.9550 c3         1 L82       0.114000
      3 C5         -27.4770   -33.9070    12.6270 c3         1 L82       0.104000
      4 C6         -26.3900   -33.2540    14.8330 cc         1 L82       0.407500
      5 C11        -27.8460   -36.3880    16.3290 ca         1 L82      -0.118500
      6 C7         -26.5390   -34.5120    15.5680 ca         1 L82      -0.116900
      7 C8         -25.4490   -34.9890    16.2960 ca         1 L82      -0.075000
      8 C9         -25.5600   -36.1580    17.0330 ca         1 L82      -0.118500
      9 C10        -26.7570   -36.8620    17.0480 ca         1 L82      -0.097000
     10 C12        -27.7410   -35.2170    15.5950 ca         1 L82      -0.075000
     11 C13        -26.4390   -31.7340    13.2290 cs         1 L82       0.371400
     12 N1         -26.8120   -33.0040    13.5510 n          1 L82      -0.230300
     13 N2         -25.7860   -32.2170    15.3220 nd         1 L82      -0.505300
     14 C3         -29.6400   -34.6560    11.5970 c3         1 L82      -0.044400
     15 N3         -25.8250   -31.3050    14.3380 ns         1 L82      -0.282400
     16 C1         -31.6630   -33.1550    11.4670 c          1 L82       0.717000
     17 C15        -34.0070   -34.4620    10.1020 ca         1 L82       0.373800
     18 C16        -33.5170   -34.0390     8.8700 ca         1 L82      -0.118000
     19 C17        -34.2920   -33.1910     8.0980 ca         1 L82      -0.083500
     20 C18        -35.5290   -32.7830     8.5760 ca         1 L82      -0.183500
     21 C19        -35.9300   -33.2570     9.8150 ca         1 L82       0.329400
     22 C2         -31.1620   -34.6120    11.7060 c3         1 L82       0.037500
     23 C21        -31.8850   -37.7790     9.7720 ca         1 L82       0.373800
     24 C22        -31.7890   -37.3620     8.4460 ca         1 L82      -0.118000
     25 C23        -32.2330   -38.2070     7.4440 ca         1 L82      -0.083500
     26 C24        -32.7550   -39.4450     7.7930 ca         1 L82      -0.183500
     27 C25        -32.8050   -39.7730     9.1370 ca         1 L82       0.329400
     28 N4         -31.8380   -35.5300    10.7780 n3         1 L82      -0.702600
     29 N5         -35.1950   -34.0750    10.5590 nb         1 L82      -0.680500
     30 N6         -32.3850   -38.9640    10.1050 nb         1 L82      -0.680500
     31 O2         -31.2110   -32.5740    10.4620 o          1 L82      -0.709000
     32 S1         -26.6650   -30.9180    11.7880 s          1 L82      -0.595400
     33 H1         -29.1430   -32.6360    12.2000 hc         1 L82       0.074700
     34 H2         -29.4190   -33.7400    13.5360 hc         1 L82       0.074700
     35 H3         -33.5620   -35.3040    12.0040 h1         1 L82       0.045450
     36 H4         -33.7100   -36.4440    10.6960 h1         1 L82       0.045450
     37 H5         -27.2620   -34.9270    12.9450 h1         1 L82       0.065700
     38 H6         -27.0120   -33.7650    11.6500 h1         1 L82       0.065700
     39 H7         -28.7850   -36.9250    16.3450 ha         1 L82       0.116000
     40 H8         -24.5110   -34.4500    16.2760 ha         1 L82       0.132500
     41 H9         -24.7070   -36.5230    17.5900 ha         1 L82       0.116000
     42 H10        -26.8420   -37.7760    17.6200 ha         1 L82       0.110000
     43 H11        -28.6090   -34.8460    15.0660 ha         1 L82       0.132500
     44 H12        -29.2680   -35.6500    11.8580 hc         1 L82       0.025700
     45 H13        -29.3330   -34.4630    10.5660 hc         1 L82       0.025700
     46 H14        -25.4210   -30.3900    14.4700 hn         1 L82       0.497000
     47 H15        -32.5430   -34.3630     8.5380 ha         1 L82       0.145000
     48 H16        -33.9340   -32.8490     7.1350 ha         1 L82       0.105500
     49 H17        -36.1660   -32.1180     8.0090 ha         1 L82       0.104500
     50 H18        -36.8890   -32.9620    10.2280 h4         1 L82       0.000100
     51 H19        -31.4240   -34.8930    12.7410 h1         1 L82       0.008700
     52 H20        -31.6570   -37.3700    11.8510 h1         1 L82       0.045450
     53 H21        -30.2900   -36.9280    10.8430 h1         1 L82       0.045450
     54 H22        -31.3720   -36.3930     8.2120 ha         1 L82       0.145000
     55 H23        -32.1690   -37.9070     6.4060 ha         1 L82       0.105500
     56 H24        -33.1150   -40.1380     7.0450 ha         1 L82       0.104500
     57 H25        -33.2060   -40.7310     9.4510 h4         1 L82       0.000100
     58 C20        -31.3790   -36.9060    10.8930 c3         1 L82       0.114000
     59 O1         -32.4580   -32.6930    12.3080 o          1 L82      -0.709000
@<TRIPOS>BOND
     1     1     3 1   
     2     1    14 1   
     3     1    33 1   
     4     1    34 1   
     5     2    17 1   
     6     2    28 1   
     7     2    35 1   
     8     2    36 1   
     9     3    12 1   
    10     3    37 1   
    11     3    38 1   
    12     4     6 1   
    13     4    12 1   
    14     4    13 2   
    15     5     9 ar  
    16     5    10 ar  
    17     5    39 1   
    18     6     7 ar  
    19     6    10 ar  
    20     7     8 ar  
    21     7    40 1   
    22     8     9 ar  
    23     8    41 1   
    24     9    42 1   
    25    10    43 1   
    26    11    12 1   
    27    11    15 1   
    28    11    32 2   
    29    13    15 1   
    30    14    22 1   
    31    14    44 1   
    32    14    45 1   
    33    15    46 1   
    34    16    22 1   
    35    16    31 1   
    36    16    59 1   
    37    17    18 ar  
    38    17    29 ar  
    39    18    19 ar  
    40    18    47 1   
    41    19    20 ar  
    42    19    48 1   
    43    20    21 ar  
    44    20    49 1   
    45    21    29 ar  
    46    21    50 1   
    47    22    28 1   
    48    22    51 1   
    49    23    24 ar  
    50    23    30 ar  
    51    23    58 1   
    52    24    25 ar  
    53    24    54 1   
    54    25    26 ar  
    55    25    55 1   
    56    26    27 ar  
    57    26    56 1   
    58    27    30 ar  
    59    27    57 1   
    60    28    58 1   
    61    52    58 1   
    62    53    58 1   
@<TRIPOS>SUBSTRUCTURE
     1 L82         1 TEMP              0 ****  ****    0 ROOT
