@<TRIPOS>MOLECULE
L83
   33    34     1     0     0
SMALL
abcg2


@<TRIPOS>ATOM
      1 N1           9.3250     0.8690    18.8750 nv         1 L83      -1.026900
      2 C4           7.9490     0.8040    18.8660 ca         1 L83       0.591900
      3 C5           7.2190     0.4320    20.0170 ca         1 L83      -0.151000
      4 C6           8.7530     0.8490    21.9160 c          1 L83       0.600100
      5 C7           9.3240     0.2050    23.1700 c3         1 L83      -0.106100
      6 C8          10.6960    -0.3540    22.8710 ca         1 L83      -0.080300
      7 C10         13.0980    -0.1060    22.7930 ca         1 L83      -0.101000
      8 C13         10.8180    -1.6170    22.2910 ca         1 L83      -0.095000
      9 N            7.3390     1.0440    17.6980 nb         1 L83      -0.735000
     10 N2           7.8680     0.0890    21.2300 ns         1 L83      -0.138000
     11 C1           5.8330     0.3100    19.9400 ca         1 L83      -0.029300
     12 C11         13.2280    -1.3630    22.2120 ca         1 L83      -0.095000
     13 C2           5.2220     0.5600    18.7090 ca         1 L83      -0.205000
     14 C9          11.8440     0.3970    23.1190 ca         1 L83      -0.088000
     15 C12         12.0770    -2.1010    21.9710 ca         1 L83       0.127000
     16 C            5.0260    -0.0940    21.1390 c3         1 L83      -0.052800
     17 O            9.1250     1.9570    21.5330 o          1 L83      -0.608100
     18 C3           6.0130     0.9140    17.6310 ca         1 L83       0.377900
     19 CL          12.2160    -3.6910    21.2440 cl         1 L83      -0.210000
     20 H1           9.7030     1.2740    18.0300 hn         1 L83       0.471000
     21 H2           9.7310     1.2580    19.7160 hn         1 L83       0.471000
     22 H3           9.3910     0.9810    23.9310 hc         1 L83       0.070700
     23 H4           8.6650    -0.5840    23.5330 hc         1 L83       0.070700
     24 H5          13.9860     0.4810    22.9920 ha         1 L83       0.122000
     25 H6           9.9390    -2.2140    22.0900 ha         1 L83       0.126000
     26 H7           7.5600    -0.7620    21.6770 hn         1 L83       0.152000
     27 H8          14.1990    -1.7620    21.9560 ha         1 L83       0.132000
     28 H9           4.1490     0.4810    18.6030 ha         1 L83       0.124000
     29 H10         11.7540     1.3770    23.5700 ha         1 L83       0.125000
     30 H11          5.2450    -1.1250    21.4320 hc         1 L83       0.047033
     31 H12          5.2570     0.5390    21.9980 hc         1 L83       0.047033
     32 H13          3.9610    -0.0240    20.9250 hc         1 L83       0.047033
     33 H14          5.5630     1.1070    16.6630 h4         1 L83       0.019100
@<TRIPOS>BOND
     1     1     2 1   
     2     1    20 1   
     3     1    21 1   
     4     2     3 ar  
     5     2     9 ar  
     6     3    10 1   
     7     3    11 ar  
     8     4     5 1   
     9     4    10 1   
    10     4    17 2   
    11     5     6 1   
    12     5    22 1   
    13     5    23 1   
    14     6     8 ar  
    15     6    14 ar  
    16     7    12 ar  
    17     7    14 ar  
    18     7    24 1   
    19     8    15 ar  
    20     8    25 1   
    21     9    18 ar  
    22    10    26 1   
    23    11    13 ar  
    24    11    16 1   
    25    12    15 ar  
    26    12    27 1   
    27    13    18 ar  
    28    13    28 1   
    29    14    29 1   
    30    15    19 1   
    31    16    30 1   
    32    16    31 1   
    33    16    32 1   
    34    18    33 1   
@<TRIPOS>SUBSTRUCTURE
     1 L83         1 TEMP              0 ****  ****    0 ROOT
