@<TRIPOS>MOLECULE
L83
   33    34     1     0     0
SMALL
No Charge or Current Charge


@<TRIPOS>ATOM
      1 N1           9.0240     1.6810    18.6850 nv         1 L83      -1.026900
      2 C4           7.7790     1.2200    18.8120 ca         1 L83       0.591900
      3 C5           7.2290     0.6110    19.9720 ca         1 L83      -0.151000
      4 C6           8.9800     1.0930    21.8140 c          1 L83       0.600100
      5 C7           9.4720     0.4610    23.1220 c3         1 L83      -0.106100
      6 C8          10.7610    -0.3230    22.8910 ca         1 L83      -0.080300
      7 C10         13.1990    -0.4020    22.7790 ca         1 L83      -0.101000
      8 C13         10.7120    -1.6920    22.5600 ca         1 L83      -0.095000
      9 N            7.1430     1.3960    17.6610 nb         1 L83      -0.735000
     10 N2           7.9340     0.4090    21.2030 ns         1 L83      -0.138000
     11 C1           5.9040     0.1300    19.8740 ca         1 L83      -0.029300
     12 C11         13.1440    -1.7680    22.4510 ca         1 L83      -0.095000
     13 C2           5.2240     0.3140    18.6570 ca         1 L83      -0.205000
     14 C9          12.0110     0.3180    22.9980 ca         1 L83      -0.088000
     15 C12         11.9000    -2.4100    22.3420 ca         1 L83       0.127000
     16 C            5.2090    -0.5630    21.0420 c3         1 L83      -0.052800
     17 O            9.4820     2.1210    21.3680 o          1 L83      -0.608100
     18 C3           5.8720     0.9490    17.5870 ca         1 L83       0.377900
     19 Cl          11.8280    -4.1180    21.9290 cl         1 L83      -0.210000
     20 H1           9.1600     2.2750    17.8790 hn         1 L83       0.471000
     21 H2           9.4600     1.9960    19.5510 hn         1 L83       0.471000
     22 H3           9.6530     1.2600    23.8500 hc         1 L83       0.070700
     23 H4           8.7070    -0.2190    23.5150 hc         1 L83       0.070700
     24 H5          14.1620     0.0980    22.8630 ha         1 L83       0.122000
     25 H6           9.7560    -2.2030    22.4710 ha         1 L83       0.126000
     26 H7           7.6050    -0.3890    21.7320 hn         1 L83       0.152000
     27 H8          14.0600    -2.3270    22.2810 ha         1 L83       0.132000
     28 H9           4.2020    -0.0310    18.5310 ha         1 L83       0.124000
     29 H10         12.0640     1.3760    23.2480 ha         1 L83       0.125000
     30 H11          5.7230    -1.4930    21.3110 hc         1 L83       0.047033
     31 H12          5.1870     0.0830    21.9280 hc         1 L83       0.047033
     32 H13          4.1710    -0.8210    20.8000 hc         1 L83       0.047033
     33 H14          5.3580     1.0990    16.6380 h4         1 L83       0.019100
@<TRIPOS>BOND
     1     1     2 1   
     2     1    20 1   
     3     1    21 1   
     4     2     3 ar  
     5     2     9 ar  
     6     3    10 1   
     7     3    11 ar  
     8     4     5 1   
     9     4    10 1   
    10     4    17 2   
    11     5     6 1   
    12     5    22 1   
    13     5    23 1   
    14     6     8 ar  
    15     6    14 ar  
    16     7    12 ar  
    17     7    14 ar  
    18     7    24 1   
    19     8    15 ar  
    20     8    25 1   
    21     9    18 ar  
    22    10    26 1   
    23    11    13 ar  
    24    11    16 1   
    25    12    15 ar  
    26    12    27 1   
    27    13    18 ar  
    28    13    28 1   
    29    14    29 1   
    30    15    19 1   
    31    16    30 1   
    32    16    31 1   
    33    16    32 1   
    34    18    33 1   
@<TRIPOS>SUBSTRUCTURE
     1 L83         1 TEMP              0 ****  ****    0 ROOT
