@<TRIPOS>MOLECULE
L85
   28    29     1     0     0
SMALL
No Charge or Current Charge


@<TRIPOS>ATOM
      1 NA          -1.2030     0.0850    -0.5280 ne         1 L85      -0.192400
      2 NB          -1.8770     0.0520     0.5430 nf         1 L85      -0.224400
      3 CG          -3.2830     0.0890     0.3870 ca         1 L85       0.063400
      4 CH           0.1950     0.0480    -0.3720 ca         1 L85       0.065400
      5 CK           3.0120    -0.0250    -0.0810 ca         1 L85      -0.189500
      6 OT           4.9780    -0.1400     1.5910 o          1 L85      -0.689867
      7 CZ          -6.0830     0.1620     0.0910 ca         1 L85       0.138100
      8 OC1          5.2210    -1.3010    -0.5980 o          1 L85      -0.689867
      9 OC2          5.2740     1.1960    -0.4890 o          1 L85      -0.689867
     10 CD1         -4.0130    -1.1090     0.2620 ca         1 L85      -0.045500
     11 CD2         -3.9610     1.3230     0.3680 ca         1 L85      -0.045500
     12 CE1         -5.4120    -1.0720     0.1130 ca         1 L85      -0.188000
     13 CE2         -5.3600     1.3570     0.2190 ca         1 L85      -0.188000
     14 CI1          0.9270     1.2430    -0.2460 ca         1 L85      -0.101500
     15 CI2          0.8750    -1.1830    -0.3520 ca         1 L85      -0.101500
     16 CJ1          2.3250     1.2080    -0.0980 ca         1 L85      -0.041500
     17 CJ2          2.2730    -1.2220    -0.2030 ca         1 L85      -0.041500
     18 SO4          4.8570    -0.0740     0.1270 s6         1 L85       1.258100
     19 HOH         -7.7690    -0.7150    -0.1260 ho         1 L85       0.461000
     20 HD1         -3.4930    -2.0640     0.2790 ha         1 L85       0.132000
     21 HD2         -3.4020     2.2510     0.4680 ha         1 L85       0.132000
     22 HE1         -5.9650    -2.0030     0.0160 ha         1 L85       0.115500
     23 HE2         -5.8810     2.3120     0.2040 ha         1 L85       0.115500
     24 HI1          0.4100     2.1990    -0.2610 ha         1 L85       0.110000
     25 HI2          0.3180    -2.1120    -0.4480 ha         1 L85       0.110000
     26 HJ1          2.8720     2.1430     0.0050 ha         1 L85       0.133000
     27 HJ2          2.7800    -2.1850    -0.1830 ha         1 L85       0.133000
     28 OH          -7.4360     0.2050    -0.0520 oh         1 L85      -0.537100
@<TRIPOS>BOND
     1     1     2 2   
     2     1     4 1   
     3     2     3 1   
     4     3    10 ar  
     5     3    11 ar  
     6     4    14 ar  
     7     4    15 ar  
     8     5    16 ar  
     9     5    17 ar  
    10     5    18 1   
    11     6    18 1   
    12     7    12 ar  
    13     7    13 ar  
    14     7    28 1   
    15     8    18 1   
    16     9    18 1   
    17    10    12 ar  
    18    10    20 1   
    19    11    13 ar  
    20    11    21 1   
    21    12    22 1   
    22    13    23 1   
    23    14    16 ar  
    24    14    24 1   
    25    15    17 ar  
    26    15    25 1   
    27    16    26 1   
    28    17    27 1   
    29    19    28 1   
@<TRIPOS>SUBSTRUCTURE
     1 L85         1 TEMP              0 ****  ****    0 ROOT
