@<TRIPOS>MOLECULE
L85
   28    29     1     0     0
SMALL
abcg2


@<TRIPOS>ATOM
      1 NA          -1.1700     0.6000    -0.0350 ne         1 L85      -0.192400
      2 NB          -1.8970    -0.4040     0.0200 nf         1 L85      -0.224400
      3 CG          -3.2720    -0.1600     0.0510 ca         1 L85       0.063400
      4 CH           0.2110     0.3350    -0.0500 ca         1 L85       0.065400
      5 CK           2.9760     0.0400    -0.0760 ca         1 L85      -0.189500
      6 OT           5.0440    -0.2860     1.4400 o          1 L85      -0.689867
      7 CZ          -6.0500     0.0980     0.1260 ca         1 L85       0.138100
      8 OC1          5.0310    -1.4040    -0.7500 o          1 L85      -0.689867
      9 OC2          5.3290     1.0380    -0.6160 o          1 L85      -0.689867
     10 CD1         -4.0900    -1.2870     0.0750 ca         1 L85      -0.045500
     11 CD2         -3.8650     1.1090     0.0660 ca         1 L85      -0.045500
     12 CE1         -5.4680    -1.1680     0.1110 ca         1 L85      -0.188000
     13 CE2         -5.2350     1.2380     0.1050 ca         1 L85      -0.188000
     14 CI1          1.0370     1.4510    -0.1360 ca         1 L85      -0.101500
     15 CI2          0.7800    -0.9400     0.0180 ca         1 L85      -0.101500
     16 CJ1          2.4170     1.3070    -0.1490 ca         1 L85      -0.041500
     17 CJ2          2.1540    -1.0820     0.0060 ca         1 L85      -0.041500
     18 SO4          4.7540    -0.1690     0.0020 s6         1 L85       1.258100
     19 HOH         -7.8430    -0.5540     0.1850 ho         1 L85       0.461000
     20 HD1         -3.6320    -2.2680     0.0650 ha         1 L85       0.132000
     21 HD2         -3.2440     1.9940     0.0510 ha         1 L85       0.132000
     22 HE1         -6.0880    -2.0560     0.1280 ha         1 L85       0.115500
     23 HE2         -5.6920     2.2190     0.1200 ha         1 L85       0.115500
     24 HI1          0.5880     2.4340    -0.1930 ha         1 L85       0.110000
     25 HI2          0.1470    -1.8140     0.0810 ha         1 L85       0.110000
     26 HJ1          3.0460     2.1830    -0.2220 ha         1 L85       0.133000
     27 HJ2          2.5850    -2.0740     0.0510 ha         1 L85       0.133000
     28 OH          -7.3750     0.2890     0.1630 oh         1 L85      -0.537100
@<TRIPOS>BOND
     1     1     2 2   
     2     1     4 1   
     3     2     3 1   
     4     3    10 ar  
     5     3    11 ar  
     6     4    14 ar  
     7     4    15 ar  
     8     5    16 ar  
     9     5    17 ar  
    10     5    18 1   
    11     6    18 1   
    12     7    12 ar  
    13     7    13 ar  
    14     7    28 1   
    15     8    18 1   
    16     9    18 1   
    17    10    12 ar  
    18    10    20 1   
    19    11    13 ar  
    20    11    21 1   
    21    12    22 1   
    22    13    23 1   
    23    14    16 ar  
    24    14    24 1   
    25    15    17 ar  
    26    15    25 1   
    27    16    26 1   
    28    17    27 1   
    29    19    28 1   
@<TRIPOS>SUBSTRUCTURE
     1 L85         1 TEMP              0 ****  ****    0 ROOT
