@<TRIPOS>MOLECULE
L87
   47    50     1     0     0
SMALL
No Charge or Current Charge


@<TRIPOS>ATOM
      1 O2          -5.2020    -0.2700    -1.5830 o          1 L87      -0.560000
      2 C17         -4.2270     0.0440    -0.9200 c          1 L87       0.629000
      3 N4          -3.8530     1.3530    -0.8230 ns         1 L87      -0.472500
      4 N5          -3.4360    -0.8920    -0.2330 n          1 L87      -0.365300
      5 C18         -3.7790    -2.3300    -0.3280 c3         1 L87       0.101300
      6 C2          -2.3450    -0.4560     0.4850 cc         1 L87       0.481900
      7 C3          -2.0300     0.8640     0.5500 cd         1 L87      -0.385600
      8 C16         -2.8020     1.8820    -0.1450 c          1 L87       0.646600
      9 O3          -2.5570     3.0750    -0.1330 o          1 L87      -0.545000
     10 N1          -1.4170    -1.2580     1.0940 nc         1 L87      -0.737000
     11 C1          -0.5710    -0.3920     1.6400 cd         1 L87       0.523000
     12 N2          -0.8930     0.9050     1.3250 na         1 L87       0.039500
     13 N3           0.7790    -0.4960     1.3700 na         1 L87      -0.163500
     14 C6           1.5360    -1.7610     1.4060 c3         1 L87       0.088600
     15 C7           1.8240    -2.3320     0.0010 c3         1 L87      -0.102400
     16 C8           2.6150    -3.6560     0.0400 c3         1 L87      -0.072400
     17 C9           2.9080    -4.2230    -1.3620 c3         1 L87      -0.089100
     18 C5           1.2790     0.7210     0.9300 cc         1 L87      -0.089000
     19 C4           0.2090     1.5920     0.8310 cd         1 L87      -0.152000
     20 C10          2.6340     1.0540     0.4970 ca         1 L87      -0.040000
     21 C11          2.9170     1.4490    -0.8340 ca         1 L87      -0.043300
     22 C26          1.8230     1.5200    -1.8970 c3         1 L87      -0.053800
     23 C12          4.2440     1.7560    -1.1970 ca         1 L87      -0.115000
     24 C13          5.2820     1.6650    -0.2560 ca         1 L87      -0.090000
     25 C14          5.0020     1.2620     1.0580 ca         1 L87      -0.117000
     26 C15          3.6830     0.9570     1.4300 ca         1 L87      -0.086000
     27 H1          -4.4270     2.0110    -1.3230 hn         1 L87       0.344500
     28 H2          -4.8680    -2.4650    -0.3110 h1         1 L87       0.058033
     29 H3          -3.3810    -2.7420    -1.2640 h1         1 L87       0.058033
     30 H4          -3.3550    -2.8880     0.5160 h1         1 L87       0.058033
     31 H5           2.4830    -1.5870     1.9310 h1         1 L87       0.071200
     32 H6           0.9660    -2.4980     1.9880 h1         1 L87       0.071200
     33 H7           0.8730    -2.4920    -0.5220 hc         1 L87       0.055700
     34 H8           2.3890    -1.5940    -0.5820 hc         1 L87       0.055700
     35 H9           3.5650    -3.4970     0.5660 hc         1 L87       0.040200
     36 H10          2.0510    -4.4010     0.6160 hc         1 L87       0.040200
     37 H11          3.4710    -5.1610    -1.2860 hc         1 L87       0.035700
     38 H12          1.9750    -4.4260    -1.9020 hc         1 L87       0.035700
     39 H13          3.5020    -3.5140    -1.9510 hc         1 L87       0.035700
     40 H14          0.1500     2.6030     0.4450 h4         1 L87       0.190000
     41 H15          1.2350     2.4390    -1.7950 hc         1 L87       0.049367
     42 H16          2.2430     1.5080    -2.9090 hc         1 L87       0.049367
     43 H17          1.1380     0.6670    -1.8240 hc         1 L87       0.049367
     44 H18          4.4740     2.0610    -2.2160 ha         1 L87       0.118000
     45 H19          6.3040     1.9030    -0.5470 ha         1 L87       0.118000
     46 H20          5.8050     1.1880     1.7880 ha         1 L87       0.120000
     47 H21          3.4720     0.6510     2.4520 ha         1 L87       0.120000
@<TRIPOS>BOND
     1     1     2 2   
     2     2     3 1   
     3     2     4 1   
     4     3     8 1   
     5     3    27 1   
     6     4     5 1   
     7     4     6 1   
     8     5    28 1   
     9     5    29 1   
    10     5    30 1   
    11     6     7 2   
    12     6    10 1   
    13     7     8 1   
    14     7    12 1   
    15     8     9 2   
    16    10    11 2   
    17    11    12 1   
    18    11    13 1   
    19    12    19 1   
    20    13    14 1   
    21    13    18 1   
    22    14    15 1   
    23    14    31 1   
    24    14    32 1   
    25    15    16 1   
    26    15    33 1   
    27    15    34 1   
    28    16    17 1   
    29    16    35 1   
    30    16    36 1   
    31    17    37 1   
    32    17    38 1   
    33    17    39 1   
    34    18    19 2   
    35    18    20 1   
    36    19    40 1   
    37    20    21 ar  
    38    20    26 ar  
    39    21    22 1   
    40    21    23 ar  
    41    22    41 1   
    42    22    42 1   
    43    22    43 1   
    44    23    24 ar  
    45    23    44 1   
    46    24    25 ar  
    47    24    45 1   
    48    25    26 ar  
    49    25    46 1   
    50    26    47 1   
@<TRIPOS>SUBSTRUCTURE
     1 L87         1 TEMP              0 ****  ****    0 ROOT
