@<TRIPOS>MOLECULE
L87
   47    50     1     0     0
SMALL
abcg2


@<TRIPOS>ATOM
      1 O2          -6.1150    -0.2540    -0.0590 o          1 L87      -0.560000
      2 C17         -4.9340     0.0360    -0.0320 c          1 L87       0.629000
      3 N4          -4.5100     1.3150    -0.3230 ns         1 L87      -0.472500
      4 N5          -3.9480    -0.8700     0.2850 n          1 L87      -0.365300
      5 C18         -4.2700    -2.2480     0.6160 c3         1 L87       0.101300
      6 C2          -2.6420    -0.4680     0.2960 cc         1 L87       0.481900
      7 C3          -2.2830     0.8370    -0.0070 cd         1 L87      -0.385600
      8 C16         -3.2170     1.8370    -0.3440 c          1 L87       0.646600
      9 O3          -3.0020     3.0060    -0.6240 o          1 L87      -0.545000
     10 N1          -1.6000    -1.2600     0.5890 nc         1 L87      -0.737000
     11 C1          -0.5720    -0.4220     0.4660 cd         1 L87       0.523000
     12 N2          -0.9060     0.8350     0.1110 na         1 L87       0.039500
     13 N3           0.7610    -0.4820     0.6040 na         1 L87      -0.163500
     14 C6           1.5200    -1.7000     0.8280 c3         1 L87       0.088600
     15 C7           1.9920    -2.3380    -0.4690 c3         1 L87      -0.102400
     16 C8           2.8180    -3.5920    -0.2110 c3         1 L87      -0.072400
     17 C9           3.2930    -4.2470    -1.5000 c3         1 L87      -0.089100
     18 C5           1.2710     0.7780     0.3000 cc         1 L87      -0.089000
     19 C4           0.2320     1.6000     0.0000 cd         1 L87      -0.152000
     20 C10          2.7090     1.0730     0.3520 ca         1 L87      -0.040000
     21 C11          3.4230     1.3730    -0.8160 ca         1 L87      -0.043300
     22 C26          2.7570     1.4140    -2.1620 c3         1 L87      -0.053800
     23 C12          4.7850     1.6420    -0.7050 ca         1 L87      -0.115000
     24 C13          5.4310     1.6120     0.5230 ca         1 L87      -0.090000
     25 C14          4.7180     1.3110     1.6750 ca         1 L87      -0.117000
     26 C15          3.3620     1.0440     1.5840 ca         1 L87      -0.086000
     27 H1          -5.2560     1.9610    -0.5500 hn         1 L87       0.344500
     28 H2          -5.3410    -2.3910     0.5430 h1         1 L87       0.058033
     29 H3          -3.7720    -2.9260    -0.0740 h1         1 L87       0.058033
     30 H4          -3.9490    -2.4750     1.6310 h1         1 L87       0.058033
     31 H5           2.3660    -1.4610     1.4730 h1         1 L87       0.071200
     32 H6           0.8810    -2.3840     1.3860 h1         1 L87       0.071200
     33 H7           1.1250    -2.5840    -1.0890 hc         1 L87       0.055700
     34 H8           2.5900    -1.6170    -1.0360 hc         1 L87       0.055700
     35 H9           3.6800    -3.3360     0.4110 hc         1 L87       0.040200
     36 H10          2.2250    -4.3060     0.3670 hc         1 L87       0.040200
     37 H11          3.8970    -5.1320    -1.2970 hc         1 L87       0.035700
     38 H12          2.4490    -4.5570    -2.1190 hc         1 L87       0.035700
     39 H13          3.9000    -3.5580    -2.0910 hc         1 L87       0.035700
     40 H14          0.2250     2.6440    -0.2590 h4         1 L87       0.190000
     41 H15          2.2000     2.3420    -2.3000 hc         1 L87       0.049367
     42 H16          3.4950     1.3540    -2.9610 hc         1 L87       0.049367
     43 H17          2.0480     0.5970    -2.2920 hc         1 L87       0.049367
     44 H18          5.3510     1.8690    -1.6000 ha         1 L87       0.118000
     45 H19          6.4920     1.8200     0.5780 ha         1 L87       0.118000
     46 H20          5.2120     1.2880     2.6370 ha         1 L87       0.120000
     47 H21          2.7970     0.8180     2.4810 ha         1 L87       0.120000
@<TRIPOS>BOND
     1     1     2 2   
     2     2     3 1   
     3     2     4 1   
     4     3     8 1   
     5     3    27 1   
     6     4     5 1   
     7     4     6 1   
     8     5    28 1   
     9     5    29 1   
    10     5    30 1   
    11     6     7 2   
    12     6    10 1   
    13     7     8 1   
    14     7    12 1   
    15     8     9 2   
    16    10    11 2   
    17    11    12 1   
    18    11    13 1   
    19    12    19 1   
    20    13    14 1   
    21    13    18 1   
    22    14    15 1   
    23    14    31 1   
    24    14    32 1   
    25    15    16 1   
    26    15    33 1   
    27    15    34 1   
    28    16    17 1   
    29    16    35 1   
    30    16    36 1   
    31    17    37 1   
    32    17    38 1   
    33    17    39 1   
    34    18    19 2   
    35    18    20 1   
    36    19    40 1   
    37    20    21 ar  
    38    20    26 ar  
    39    21    22 1   
    40    21    23 ar  
    41    22    41 1   
    42    22    42 1   
    43    22    43 1   
    44    23    24 ar  
    45    23    44 1   
    46    24    25 ar  
    47    24    45 1   
    48    25    26 ar  
    49    25    46 1   
    50    26    47 1   
@<TRIPOS>SUBSTRUCTURE
     1 L87         1 TEMP              0 ****  ****    0 ROOT
