@<TRIPOS>MOLECULE
L88
  139   144     1     0     0
SMALL
abcg2


@<TRIPOS>ATOM
      1 O2          12.4970    -7.7610    20.6620 o          1 L88      -0.616600
      2 C11         11.5870    -7.0200    21.0000 c          1 L88       0.614100
      3 C12         10.4110    -6.7080    20.1000 c3         1 L88      -0.144900
      4 C13         10.7640    -6.7960    18.6180 c3         1 L88      -0.033600
      5 C27          9.5660    -6.5190    17.7550 ca         1 L88      -0.042300
      6 C14          9.3640    -5.2670    17.1800 ca         1 L88      -0.108000
      7 C17          8.2460    -5.0050    16.4040 ca         1 L88      -0.101250
      8 C16          7.2910    -5.9960    16.1710 ca         1 L88      -0.053000
      9 C18          6.1350    -5.7170    15.3200 cc         1 L88      -0.111500
     10 S7           4.6040    -6.4630    15.6000 ss         1 L88       0.201500
     11 C29          3.9010    -5.6820    14.2520 cc         1 L88      -0.258500
     12 C20          4.7920    -4.8700    13.6040 cd         1 L88      -0.057500
     13 C21          4.4820    -4.0850    12.4000 ca         1 L88       0.002000
     14 C26          5.1600    -2.8950    12.1320 ca         1 L88      -0.101250
     15 C25          4.8760    -2.1540    10.9940 ca         1 L88      -0.114500
     16 C24          3.9040    -2.5870    10.1020 ca         1 L88      -0.119500
     17 C23          3.2200    -3.7680    10.3580 ca         1 L88      -0.114500
     18 C22          3.5090    -4.5120    11.4920 ca         1 L88      -0.101250
     19 C19          6.0720    -4.8950    14.2320 cd         1 L88      -0.137000
     20 C15          7.4880    -7.2510    16.7520 ca         1 L88      -0.101250
     21 C28          8.6050    -7.5030    17.5300 ca         1 L88      -0.108000
     22 N2          11.5220    -6.4740    22.2320 ns         1 L88      -0.493900
     23 C7          12.6330    -6.5200    23.1610 c3         1 L88       0.039700
     24 C8          13.8000    -5.6170    22.7650 c3         1 L88      -0.066400
     25 C9          13.3730    -4.1650    22.5690 c3         1 L88      -0.210400
     26 C10         12.5780    -3.8930    21.2750 c          1 L88       0.704500
     27 O4          11.5110    -3.2530    21.3840 o          1 L88      -0.753250
     28 O4E         13.0850    -4.3160    20.2150 o          1 L88      -0.753250
     29 C6          13.0650    -7.9620    23.4470 c          1 L88       0.613100
     30 O1          14.2410    -8.2640    23.5950 o          1 L88      -0.622600
     31 N1          12.0590    -8.8330    23.6190 ns         1 L88      -0.503400
     32 C53         12.2700   -10.2360    23.8910 c3         1 L88       0.110500
     33 C54         12.4690   -11.0830    22.6370 c3         1 L88      -0.101900
     34 C55         12.8750   -12.5040    22.9680 c3         1 L88       0.162600
     35 O56         11.8650   -13.1260    23.7290 os         1 L88      -0.456500
     36 C57         12.2490   -14.3810    24.2290 c3         1 L88       0.150100
     37 C58         11.1660   -14.9660    25.1090 c3         1 L88       0.162100
     38 O67         10.9830   -14.2690    26.3190 os         1 L88      -0.446000
     39 C68          9.9490   -13.3150    26.3050 c3         1 L88       0.162100
     40 C69          9.8240   -12.6620    27.6600 c3         1 L88       0.150100
     41 O70         10.9740   -11.9010    27.9380 os         1 L88      -0.456500
     42 C71         10.7540   -10.7820    28.7640 c3         1 L88       0.162600
     43 C72         11.9730    -9.8790    28.7160 c3         1 L88      -0.101900
     44 C73         12.3570    -9.5390    27.2790 c3         1 L88       0.110500
     45 N74         13.3820    -8.5270    27.1640 ns         1 L88      -0.503400
     46 C75         13.1220    -7.2260    26.9680 c          1 L88       0.613100
     47 O77         11.9880    -6.7760    26.8820 o          1 L88      -0.622600
     48 C76         14.3550    -6.3520    26.7250 c3         1 L88       0.039700
     49 C78         14.0370    -4.8590    26.6730 c3         1 L88      -0.066400
     50 C83         15.2640    -4.0130    26.3390 c3         1 L88      -0.210400
     51 C79         16.2510    -3.8260    27.5090 c          1 L88       0.704500
     52 O80         17.4550    -4.0850    27.2970 o          1 L88      -0.753250
     53 O81         15.7600    -3.3990    28.5750 o          1 L88      -0.753250
     54 N82         15.4380    -6.6860    27.6270 ns         1 L88      -0.493900
     55 C84         15.3130    -6.6340    28.9700 c          1 L88       0.614100
     56 O85         14.2300    -6.5190    29.5240 o          1 L88      -0.616600
     57 C86         16.6100    -6.7690    29.7370 c3         1 L88      -0.144900
     58 C5          16.6720    -5.7980    30.9210 c3         1 L88      -0.033600
     59 C87         18.0670    -5.6740    31.4620 ca         1 L88      -0.042300
     60 C88         19.0150    -4.9100    30.7800 ca         1 L88      -0.108000
     61 C89         20.3080    -4.7830    31.2550 ca         1 L88      -0.101250
     62 C90         20.6990    -5.4120    32.4410 ca         1 L88      -0.053000
     63 C91         19.7560    -6.1840    33.1190 ca         1 L88      -0.101250
     64 C92         18.4630    -6.3140    32.6320 ca         1 L88      -0.108000
     65 C93         22.0600    -5.2400    32.9480 cc         1 L88      -0.111500
     66 C94         22.8960    -4.1750    32.7740 cd         1 L88      -0.137000
     67 C95         24.1580    -4.3220    33.4230 cd         1 L88      -0.057500
     68 C96         24.2450    -5.5190    34.0800 cc         1 L88      -0.258500
     69 S97         22.8260    -6.4550    33.9060 ss         1 L88       0.201500
     70 C98         25.2240    -3.3110    33.3920 ca         1 L88       0.002000
     71 C99         25.3570    -2.4510    32.3010 ca         1 L88      -0.101250
     72 C1          26.3680    -1.5010    32.2630 ca         1 L88      -0.114500
     73 C2          27.2660    -1.3930    33.3160 ca         1 L88      -0.119500
     74 C3          27.1430    -2.2430    34.4080 ca         1 L88      -0.114500
     75 C4          26.1310    -3.1890    34.4480 ca         1 L88      -0.101250
     76 H1          10.0110    -5.7180    20.3310 hc         1 L88       0.053700
     77 H2           9.6140    -7.4210    20.3360 hc         1 L88       0.053700
     78 H3          11.1570    -7.7890    18.3930 hc         1 L88       0.080450
     79 H4          11.5550    -6.0790    18.3950 hc         1 L88       0.080450
     80 H5          10.0910    -4.4810    17.3470 ha         1 L88       0.134250
     81 H6           8.1100    -4.0160    15.9850 ha         1 L88       0.104250
     82 H7           2.8600    -5.8450    14.0180 h4         1 L88       0.140500
     83 H8           5.9110    -2.5310    12.8230 ha         1 L88       0.116000
     84 H9           5.4140    -1.2340    10.8070 ha         1 L88       0.106750
     85 H10          3.6830    -2.0100     9.2140 ha         1 L88       0.103500
     86 H11          2.4660    -4.1200     9.6670 ha         1 L88       0.106750
     87 H12          2.9850    -5.4440    11.6630 ha         1 L88       0.116000
     88 H13          6.9340    -4.3590    13.8590 ha         1 L88       0.140500
     89 H14          6.7760    -8.0490    16.5750 ha         1 L88       0.104250
     90 H15          8.7390    -8.4890    17.9600 ha         1 L88       0.134250
     91 H16         10.8200    -5.7710    22.4000 hn         1 L88       0.332000
     92 H17         12.2290    -6.1460    24.1090 h1         1 L88       0.075700
     93 H18         14.2860    -5.9880    21.8630 hc         1 L88       0.057200
     94 H19         14.5460    -5.6650    23.5610 hc         1 L88       0.057200
     95 H20         14.2810    -3.5530    22.5340 hc         1 L88       0.030700
     96 H21         12.8110    -3.8240    23.4450 hc         1 L88       0.030700
     97 H23         11.1190    -8.5230    23.4310 hn         1 L88       0.317500
     98 H24         13.1410   -10.3370    24.5400 h1         1 L88       0.050700
     99 H25         11.4110   -10.5940    24.4570 h1         1 L88       0.050700
    100 H26         11.5610   -11.0760    22.0270 hc         1 L88       0.060950
    101 H27         13.2610   -10.6460    22.0250 hc         1 L88       0.060950
    102 H28         13.0660   -13.0680    22.0440 h1         1 L88       0.017450
    103 H29         13.8210   -12.4890    23.5290 h1         1 L88       0.017450
    104 H30         13.1830   -14.3010    24.8040 h1         1 L88       0.022700
    105 H31         12.4420   -15.0910    23.4100 h1         1 L88       0.022700
    106 H32         11.4710   -15.9860    25.3600 h1         1 L88       0.035200
    107 H33         10.2260   -15.0440    24.5480 h1         1 L88       0.035200
    108 H34          8.9860   -13.7880    26.0690 h1         1 L88       0.035200
    109 H35         10.1190   -12.5400    25.5490 h1         1 L88       0.035200
    110 H36          8.9290   -12.0270    27.6290 h1         1 L88       0.022700
    111 H37          9.6510   -13.4180    28.4380 h1         1 L88       0.022700
    112 H38          9.8770   -10.2200    28.4110 h1         1 L88       0.017450
    113 H39         10.5430   -11.0830    29.7990 h1         1 L88       0.017450
    114 H40         11.7370    -8.9650    29.2660 hc         1 L88       0.060950
    115 H41         12.8200   -10.3450    29.2270 hc         1 L88       0.060950
    116 H42         12.7200   -10.4320    26.7740 h1         1 L88       0.050700
    117 H43         11.4780    -9.2030    26.7270 h1         1 L88       0.050700
    118 H44         14.3440    -8.8200    27.2270 hn         1 L88       0.317500
    119 H45         14.7180    -6.6430    25.7320 h1         1 L88       0.075700
    120 H46         13.2790    -4.7080    25.9020 hc         1 L88       0.057200
    121 H47         13.5960    -4.5220    27.6120 hc         1 L88       0.057200
    122 H48         15.7740    -4.4280    25.4630 hc         1 L88       0.030700
    123 H49         14.9120    -3.0190    26.0450 hc         1 L88       0.030700
    124 H51         16.3690    -6.6450    27.2430 hn         1 L88       0.332000
    125 H52         16.6990    -7.7990    30.0920 hc         1 L88       0.053700
    126 H53         17.4590    -6.5990    29.0730 hc         1 L88       0.053700
    127 H54         16.3340    -4.8180    30.5830 hc         1 L88       0.080450
    128 H55         15.9910    -6.1250    31.7070 hc         1 L88       0.080450
    129 H56         18.7350    -4.4160    29.8550 ha         1 L88       0.134250
    130 H57         21.0230    -4.1950    30.6940 ha         1 L88       0.104250
    131 H58         20.0180    -6.6740    34.0490 ha         1 L88       0.104250
    132 H59         17.7480    -6.9130    33.1820 ha         1 L88       0.134250
    133 H60         22.6040    -3.2850    32.2330 ha         1 L88       0.140500
    134 H61         25.0840    -5.9110    34.6340 h4         1 L88       0.140500
    135 H62         24.6770    -2.5310    31.4620 ha         1 L88       0.116000
    136 H63         26.4550    -0.8470    31.4050 ha         1 L88       0.106750
    137 H64         28.0540    -0.6520    33.2870 ha         1 L88       0.103500
    138 H65         27.8330    -2.1620    35.2380 ha         1 L88       0.106750
    139 H66         26.0360    -3.8270    35.3170 ha         1 L88       0.116000
@<TRIPOS>BOND
     1     1     2 2   
     2     2     3 1   
     3     2    22 1   
     4     3     4 1   
     5     3    76 1   
     6     3    77 1   
     7     4     5 1   
     8     4    78 1   
     9     4    79 1   
    10     5     6 ar  
    11     5    21 ar  
    12     6     7 ar  
    13     6    80 1   
    14     7     8 ar  
    15     7    81 1   
    16     8     9 1   
    17     8    20 ar  
    18     9    10 1   
    19     9    19 2   
    20    10    11 1   
    21    11    12 2   
    22    11    82 1   
    23    12    13 1   
    24    12    19 1   
    25    13    14 ar  
    26    13    18 ar  
    27    14    15 ar  
    28    14    83 1   
    29    15    16 ar  
    30    15    84 1   
    31    16    17 ar  
    32    16    85 1   
    33    17    18 ar  
    34    17    86 1   
    35    18    87 1   
    36    19    88 1   
    37    20    21 ar  
    38    20    89 1   
    39    21    90 1   
    40    22    23 1   
    41    22    91 1   
    42    23    24 1   
    43    23    29 1   
    44    23    92 1   
    45    24    25 1   
    46    24    93 1   
    47    24    94 1   
    48    25    26 1   
    49    25    95 1   
    50    25    96 1   
    51    26    27 1   
    52    26    28 1   
    53    29    30 2   
    54    29    31 1   
    55    31    32 1   
    56    31    97 1   
    57    32    33 1   
    58    32    98 1   
    59    32    99 1   
    60    33    34 1   
    61    33   100 1   
    62    33   101 1   
    63    34    35 1   
    64    34   102 1   
    65    34   103 1   
    66    35    36 1   
    67    36    37 1   
    68    36   104 1   
    69    36   105 1   
    70    37    38 1   
    71    37   106 1   
    72    37   107 1   
    73    38    39 1   
    74    39    40 1   
    75    39   108 1   
    76    39   109 1   
    77    40    41 1   
    78    40   110 1   
    79    40   111 1   
    80    41    42 1   
    81    42    43 1   
    82    42   112 1   
    83    42   113 1   
    84    43    44 1   
    85    43   114 1   
    86    43   115 1   
    87    44    45 1   
    88    44   116 1   
    89    44   117 1   
    90    45    46 1   
    91    45   118 1   
    92    46    47 2   
    93    46    48 1   
    94    48    49 1   
    95    48    54 1   
    96    48   119 1   
    97    49    50 1   
    98    49   120 1   
    99    49   121 1   
   100    50    51 1   
   101    50   122 1   
   102    50   123 1   
   103    51    52 1   
   104    51    53 1   
   105    54    55 1   
   106    54   124 1   
   107    55    56 2   
   108    55    57 1   
   109    57    58 1   
   110    57   125 1   
   111    57   126 1   
   112    58    59 1   
   113    58   127 1   
   114    58   128 1   
   115    59    60 ar  
   116    59    64 ar  
   117    60    61 ar  
   118    60   129 1   
   119    61    62 ar  
   120    61   130 1   
   121    62    63 ar  
   122    62    65 1   
   123    63    64 ar  
   124    63   131 1   
   125    64   132 1   
   126    65    66 2   
   127    65    69 1   
   128    66    67 1   
   129    66   133 1   
   130    67    68 2   
   131    67    70 1   
   132    68    69 1   
   133    68   134 1   
   134    70    71 ar  
   135    70    75 ar  
   136    71    72 ar  
   137    71   135 1   
   138    72    73 ar  
   139    72   136 1   
   140    73    74 ar  
   141    73   137 1   
   142    74    75 ar  
   143    74   138 1   
   144    75   139 1   
@<TRIPOS>SUBSTRUCTURE
     1 L88         1 TEMP              0 ****  ****    0 ROOT
