@<TRIPOS>MOLECULE
L88
  139   144     1     0     0
SMALL
No Charge or Current Charge


@<TRIPOS>ATOM
      1 O2          13.0960    -7.6850    19.9560 o          1 L88      -0.616600
      2 C11         12.0650    -7.1000    20.2540 c          1 L88       0.614100
      3 C12         10.7730    -7.2580    19.4460 c3         1 L88      -0.144900
      4 C13         10.8530    -6.5210    18.0900 c3         1 L88      -0.033600
      5 C27          9.5830    -6.6990    17.2700 ca         1 L88      -0.042300
      6 C14          8.5340    -5.7670    17.3690 ca         1 L88      -0.108000
      7 C17          7.3590    -5.9350    16.6160 ca         1 L88      -0.101250
      8 C16          7.2130    -7.0390    15.7490 ca         1 L88      -0.053000
      9 C18          5.9920    -7.2340    14.9620 cc         1 L88      -0.111500
     10 S7           5.3360    -8.7750    14.4460 ss         1 L88       0.201500
     11 C29          4.0180    -7.9480    13.6210 cc         1 L88      -0.258500
     12 C20          4.1030    -6.5730    13.7280 cd         1 L88      -0.057500
     13 C21          3.1280    -5.6340    13.1120 ca         1 L88       0.002000
     14 C26          3.2600    -4.2330    13.2670 ca         1 L88      -0.101250
     15 C25          2.3350    -3.3510    12.6820 ca         1 L88      -0.114500
     16 C24          1.2610    -3.8490    11.9310 ca         1 L88      -0.119500
     17 C23          1.1140    -5.2340    11.7660 ca         1 L88      -0.114500
     18 C22          2.0380    -6.1180    12.3510 ca         1 L88      -0.101250
     19 C19          5.2470    -6.1790    14.4970 cd         1 L88      -0.137000
     20 C15          8.2640    -7.9750    15.6610 ca         1 L88      -0.101250
     21 C28          9.4390    -7.8060    16.4130 ca         1 L88      -0.108000
     22 N2          11.9580    -6.3110    21.3810 ns         1 L88      -0.493900
     23 C7          13.0760    -5.9280    22.2860 c3         1 L88       0.039700
     24 C8          14.1730    -5.0870    21.5630 c3         1 L88      -0.066400
     25 C9          13.7690    -3.6270    21.2100 c3         1 L88      -0.210400
     26 C10         12.7120    -3.5520    20.0930 c          1 L88       0.704500
     27 O4          11.5370    -3.4600    20.4120 o          1 L88      -0.753250
     28 O4E         13.0990    -3.5840    18.9360 o          1 L88      -0.753250
     29 C6          13.6480    -7.1480    23.0880 c          1 L88       0.613100
     30 O1          14.7100    -7.0980    23.6970 o          1 L88      -0.622600
     31 N1          12.8970    -8.3080    23.0590 ns         1 L88      -0.503400
     32 C53         13.2560    -9.5620    23.7240 c3         1 L88       0.110500
     33 C54         13.9390   -10.5620    22.7730 c3         1 L88      -0.101900
     34 C55         14.4270   -11.8270    23.5050 c3         1 L88       0.162600
     35 O56         13.2800   -12.5000    24.0470 os         1 L88      -0.456500
     36 C57         13.5890   -13.5240    25.0130 c3         1 L88       0.150100
     37 C58         12.2880   -14.2080    25.5180 c3         1 L88       0.162100
     38 O67         11.5350   -13.3200    26.3790 os         1 L88      -0.446000
     39 C68         10.6030   -12.4430    25.7050 c3         1 L88       0.162100
     40 C69          9.9520   -11.4840    26.7310 c3         1 L88       0.150100
     41 O70         10.9160   -10.4800    27.1020 os         1 L88      -0.456500
     42 C71         10.3730    -9.3410    27.7890 c3         1 L88       0.162600
     43 C72         11.5080    -8.3150    27.9930 c3         1 L88      -0.101900
     44 C73         12.3300    -8.0690    26.7130 c3         1 L88       0.110500
     45 N74         13.2800    -6.9650    26.8500 ns         1 L88      -0.503400
     46 C75         13.1120    -5.7020    26.3200 c          1 L88       0.613100
     47 O77         12.0890    -5.4010    25.7180 o          1 L88      -0.622600
     48 C76         14.2900    -4.6900    26.5390 c3         1 L88       0.039700
     49 C78         13.8120    -3.2410    26.8640 c3         1 L88      -0.066400
     50 C83         14.8450    -2.1160    26.5700 c3         1 L88      -0.210400
     51 C79         16.0460    -2.1400    27.5330 c          1 L88       0.704500
     52 O80         17.0600    -2.7220    27.1810 o          1 L88      -0.753250
     53 O81         15.9310    -1.5700    28.6060 o          1 L88      -0.753250
     54 N82         15.3070    -5.1900    27.5040 ns         1 L88      -0.493900
     55 C84         15.1210    -5.3610    28.8600 c          1 L88       0.614100
     56 O85         14.0290    -5.2410    29.3950 o          1 L88      -0.616600
     57 C86         16.3670    -5.7980    29.6360 c3         1 L88      -0.144900
     58 C5          16.8920    -4.6720    30.5550 c3         1 L88      -0.033600
     59 C87         18.1160    -5.1090    31.3500 ca         1 L88      -0.042300
     60 C88         19.4090    -4.8840    30.8460 ca         1 L88      -0.108000
     61 C89         20.5390    -5.2930    31.5770 ca         1 L88      -0.101250
     62 C90         20.3930    -5.9330    32.8250 ca         1 L88      -0.053000
     63 C91         19.0940    -6.1650    33.3200 ca         1 L88      -0.101250
     64 C92         17.9650    -5.7550    32.5900 ca         1 L88      -0.108000
     65 C93         21.5590    -6.3740    33.5970 cc         1 L88      -0.111500
     66 C94         22.7550    -5.7020    33.5600 cd         1 L88      -0.137000
     67 C95         23.7660    -6.2720    34.3990 cd         1 L88      -0.057500
     68 C96         23.2920    -7.3810    35.0750 cc         1 L88      -0.258500
     69 S97         21.6070    -7.7330    34.7020 ss         1 L88       0.201500
     70 C98         25.1490    -5.7460    34.5430 ca         1 L88       0.002000
     71 C99         25.5820    -4.6120    33.8150 ca         1 L88      -0.101250
     72 C1          26.8920    -4.1190    33.9550 ca         1 L88      -0.114500
     73 C2          27.7940    -4.7480    34.8240 ca         1 L88      -0.119500
     74 C3          27.3840    -5.8730    35.5550 ca         1 L88      -0.114500
     75 C4          26.0750    -6.3670    35.4160 ca         1 L88      -0.101250
     76 H1           9.9230    -6.8550    20.0100 hc         1 L88       0.053700
     77 H2          10.6130    -8.3240    19.2500 hc         1 L88       0.053700
     78 H3          11.7200    -6.8890    17.5270 hc         1 L88       0.080450
     79 H4          11.0390    -5.4550    18.2680 hc         1 L88       0.080450
     80 H5           8.6270    -4.9120    18.0360 ha         1 L88       0.134250
     81 H6           6.5580    -5.2090    16.7240 ha         1 L88       0.104250
     82 H7           3.2830    -8.5550    13.1130 h4         1 L88       0.140500
     83 H8           4.0760    -3.8080    13.8420 ha         1 L88       0.116000
     84 H9           2.4530    -2.2770    12.8130 ha         1 L88       0.106750
     85 H10          0.5460    -3.1660    11.4790 ha         1 L88       0.103500
     86 H11          0.2820    -5.6250    11.1840 ha         1 L88       0.106750
     87 H12          1.8920    -7.1830    12.2010 ha         1 L88       0.116000
     88 H13          5.5170    -5.1490    14.6900 ha         1 L88       0.140500
     89 H14          8.1780    -8.8350    15.0020 ha         1 L88       0.104250
     90 H15         10.2390    -8.5380    16.3300 ha         1 L88       0.134250
     91 H16         11.0690    -5.8390    21.5060 hn         1 L88       0.332000
     92 H17         12.6370    -5.2870    23.0600 h1         1 L88       0.075700
     93 H18         14.5250    -5.6060    20.6640 hc         1 L88       0.057200
     94 H19         15.0450    -5.0170    22.2250 hc         1 L88       0.057200
     95 H20         14.7000    -3.1660    20.8560 hc         1 L88       0.030700
     96 H21         13.3870    -3.1760    22.1340 hc         1 L88       0.030700
     97 H23         12.0390    -8.2700    22.5250 hn         1 L88       0.317500
     98 H24         13.9330    -9.3470    24.5610 h1         1 L88       0.050700
     99 H25         12.3430   -10.0080    24.1390 h1         1 L88       0.050700
    100 H26         13.2480   -10.8430    21.9700 hc         1 L88       0.060950
    101 H27         14.8020   -10.0770    22.3020 hc         1 L88       0.060950
    102 H28         14.9610   -12.4810    22.8030 h1         1 L88       0.017450
    103 H29         15.1230   -11.5340    24.3020 h1         1 L88       0.017450
    104 H30         14.1290   -13.0990    25.8700 h1         1 L88       0.022700
    105 H31         14.2310   -14.2880    24.5570 h1         1 L88       0.022700
    106 H32         12.5820   -15.0990    26.0890 h1         1 L88       0.035200
    107 H33         11.6850   -14.5510    24.6660 h1         1 L88       0.035200
    108 H34          9.8130   -13.0330    25.2240 h1         1 L88       0.035200
    109 H35         11.0930   -11.8450    24.9280 h1         1 L88       0.035200
    110 H36          9.0800   -11.0170    26.2570 h1         1 L88       0.022700
    111 H37          9.6050   -12.0440    27.6100 h1         1 L88       0.022700
    112 H38          9.5800    -8.8770    27.1870 h1         1 L88       0.017450
    113 H39          9.9480    -9.6280    28.7600 h1         1 L88       0.017450
    114 H40         11.0670    -7.3700    28.3330 hc         1 L88       0.060950
    115 H41         12.1740    -8.6640    28.7900 hc         1 L88       0.060950
    116 H42         12.8980    -8.9770    26.4790 h1         1 L88       0.050700
    117 H43         11.6530    -7.8710    25.8720 h1         1 L88       0.050700
    118 H44         14.1520    -7.1320    27.3350 hn         1 L88       0.317500
    119 H45         14.7860    -4.6550    25.5610 h1         1 L88       0.075700
    120 H46         12.9310    -3.0230    26.2480 hc         1 L88       0.057200
    121 H47         13.4700    -3.1720    27.9030 hc         1 L88       0.057200
    122 H48         15.1780    -2.2600    25.5350 hc         1 L88       0.030700
    123 H49         14.2830    -1.1860    26.7190 hc         1 L88       0.030700
    124 H51         16.2630    -5.2770    27.1750 hn         1 L88       0.332000
    125 H52         16.1050    -6.6590    30.2620 hc         1 L88       0.053700
    126 H53         17.1680    -6.0780    28.9410 hc         1 L88       0.053700
    127 H54         17.1340    -3.7920    29.9470 hc         1 L88       0.080450
    128 H55         16.0930    -4.3580    31.2390 hc         1 L88       0.080450
    129 H56         19.5420    -4.3950    29.8830 ha         1 L88       0.134250
    130 H57         21.5260    -5.1210    31.1570 ha         1 L88       0.104250
    131 H58         18.9520    -6.6580    34.2790 ha         1 L88       0.104250
    132 H59         16.9700    -5.9420    32.9900 ha         1 L88       0.134250
    133 H60         22.9040    -4.8160    32.9550 ha         1 L88       0.140500
    134 H61         23.7980    -8.0280    35.7770 h4         1 L88       0.140500
    135 H62         24.9160    -4.0990    33.1310 ha         1 L88       0.116000
    136 H63         27.2060    -3.2470    33.3860 ha         1 L88       0.106750
    137 H64         28.8070    -4.3660    34.9320 ha         1 L88       0.103500
    138 H65         28.0800    -6.3640    36.2300 ha         1 L88       0.106750
    139 H66         25.7930    -7.2390    35.9970 ha         1 L88       0.116000
@<TRIPOS>BOND
     1     1     2 2   
     2     2     3 1   
     3     2    22 1   
     4     3     4 1   
     5     3    76 1   
     6     3    77 1   
     7     4     5 1   
     8     4    78 1   
     9     4    79 1   
    10     5     6 ar  
    11     5    21 ar  
    12     6     7 ar  
    13     6    80 1   
    14     7     8 ar  
    15     7    81 1   
    16     8     9 1   
    17     8    20 ar  
    18     9    10 1   
    19     9    19 2   
    20    10    11 1   
    21    11    12 2   
    22    11    82 1   
    23    12    13 1   
    24    12    19 1   
    25    13    14 ar  
    26    13    18 ar  
    27    14    15 ar  
    28    14    83 1   
    29    15    16 ar  
    30    15    84 1   
    31    16    17 ar  
    32    16    85 1   
    33    17    18 ar  
    34    17    86 1   
    35    18    87 1   
    36    19    88 1   
    37    20    21 ar  
    38    20    89 1   
    39    21    90 1   
    40    22    23 1   
    41    22    91 1   
    42    23    24 1   
    43    23    29 1   
    44    23    92 1   
    45    24    25 1   
    46    24    93 1   
    47    24    94 1   
    48    25    26 1   
    49    25    95 1   
    50    25    96 1   
    51    26    27 1   
    52    26    28 1   
    53    29    30 2   
    54    29    31 1   
    55    31    32 1   
    56    31    97 1   
    57    32    33 1   
    58    32    98 1   
    59    32    99 1   
    60    33    34 1   
    61    33   100 1   
    62    33   101 1   
    63    34    35 1   
    64    34   102 1   
    65    34   103 1   
    66    35    36 1   
    67    36    37 1   
    68    36   104 1   
    69    36   105 1   
    70    37    38 1   
    71    37   106 1   
    72    37   107 1   
    73    38    39 1   
    74    39    40 1   
    75    39   108 1   
    76    39   109 1   
    77    40    41 1   
    78    40   110 1   
    79    40   111 1   
    80    41    42 1   
    81    42    43 1   
    82    42   112 1   
    83    42   113 1   
    84    43    44 1   
    85    43   114 1   
    86    43   115 1   
    87    44    45 1   
    88    44   116 1   
    89    44   117 1   
    90    45    46 1   
    91    45   118 1   
    92    46    47 2   
    93    46    48 1   
    94    48    49 1   
    95    48    54 1   
    96    48   119 1   
    97    49    50 1   
    98    49   120 1   
    99    49   121 1   
   100    50    51 1   
   101    50   122 1   
   102    50   123 1   
   103    51    52 1   
   104    51    53 1   
   105    54    55 1   
   106    54   124 1   
   107    55    56 2   
   108    55    57 1   
   109    57    58 1   
   110    57   125 1   
   111    57   126 1   
   112    58    59 1   
   113    58   127 1   
   114    58   128 1   
   115    59    60 ar  
   116    59    64 ar  
   117    60    61 ar  
   118    60   129 1   
   119    61    62 ar  
   120    61   130 1   
   121    62    63 ar  
   122    62    65 1   
   123    63    64 ar  
   124    63   131 1   
   125    64   132 1   
   126    65    66 2   
   127    65    69 1   
   128    66    67 1   
   129    66   133 1   
   130    67    68 2   
   131    67    70 1   
   132    68    69 1   
   133    68   134 1   
   134    70    71 ar  
   135    70    75 ar  
   136    71    72 ar  
   137    71   135 1   
   138    72    73 ar  
   139    72   136 1   
   140    73    74 ar  
   141    73   137 1   
   142    74    75 ar  
   143    74   138 1   
   144    75   139 1   
@<TRIPOS>SUBSTRUCTURE
     1 L88         1 TEMP              0 ****  ****    0 ROOT
