@<TRIPOS>MOLECULE
L89
   15    15     1     0     0
SMALL
abcg2


@<TRIPOS>ATOM
      1 N2           1.7620     1.3790    -0.1010 nv         1 L89      -1.047000
      2 C4           0.5540     0.6860    -0.0280 ca         1 L89       0.143000
      3 C            0.5690    -0.7250     0.0200 ca         1 L89       0.293000
      4 N            1.7650    -1.3920     0.0760 nv         1 L89      -1.074000
      5 C3          -0.6790     1.3180    -0.0600 ca         1 L89       0.308900
      6 N1          -1.8550     0.6910    -0.0470 nb         1 L89      -0.671000
      7 C2          -1.8310    -0.6320     0.0200 ca         1 L89       0.340900
      8 C1          -0.6620    -1.3750     0.0570 ca         1 L89      -0.217000
      9 H1           1.6420     2.3810    -0.0610 hn         1 L89       0.430500
     10 H2           2.4270     1.1030     0.6090 hn         1 L89       0.430500
     11 H3           2.5350    -0.9500    -0.4030 hn         1 L89       0.457000
     12 H4           1.7230    -2.3810    -0.1070 hn         1 L89       0.457000
     13 H5          -0.7080     2.4040    -0.1020 h4         1 L89       0.012100
     14 H6          -2.7890    -1.1400     0.0420 h4         1 L89       0.017100
     15 H7          -0.7070    -2.4570     0.0950 ha         1 L89       0.119000
@<TRIPOS>BOND
     1     1     2 1   
     2     1     9 1   
     3     1    10 1   
     4     2     3 ar  
     5     2     5 ar  
     6     3     4 1   
     7     3     8 ar  
     8     4    11 1   
     9     4    12 1   
    10     5     6 ar  
    11     5    13 1   
    12     6     7 ar  
    13     7     8 ar  
    14     7    14 1   
    15     8    15 1   
@<TRIPOS>SUBSTRUCTURE
     1 L89         1 TEMP              0 ****  ****    0 ROOT
