@<TRIPOS>MOLECULE
L89
   15    15     1     0     0
SMALL
No Charge or Current Charge


@<TRIPOS>ATOM
      1 N2           1.7420     1.4810    -0.0120 nv         1 L89      -1.047000
      2 C4           0.5560     0.7240    -0.0170 ca         1 L89       0.143000
      3 C            0.5630    -0.7040     0.0330 ca         1 L89       0.293000
      4 N            1.7310    -1.4430     0.0570 nv         1 L89      -1.074000
      5 C3          -0.7200     1.3500    -0.0630 ca         1 L89       0.308900
      6 N1          -1.8990     0.6820    -0.0540 nb         1 L89      -0.671000
      7 C2          -1.8560    -0.6670     0.0020 ca         1 L89       0.340900
      8 C1          -0.6570    -1.3890     0.0460 ca         1 L89      -0.217000
      9 H1           1.6930     2.4970     0.0700 hn         1 L89       0.430500
     10 H2           2.6160     1.0430     0.2750 hn         1 L89       0.430500
     11 H3           2.5940    -0.9920    -0.2400 hn         1 L89       0.457000
     12 H4           1.6830    -2.4510    -0.0790 hn         1 L89       0.457000
     13 H5          -0.7960     2.4360    -0.1030 h4         1 L89       0.012100
     14 H6          -2.8150    -1.1830     0.0100 h4         1 L89       0.017100
     15 H7          -0.6880    -2.4730     0.0850 ha         1 L89       0.119000
@<TRIPOS>BOND
     1     1     2 1   
     2     1     9 1   
     3     1    10 1   
     4     2     3 ar  
     5     2     5 ar  
     6     3     4 1   
     7     3     8 ar  
     8     4    11 1   
     9     4    12 1   
    10     5     6 ar  
    11     5    13 1   
    12     6     7 ar  
    13     7     8 ar  
    14     7    14 1   
    15     8    15 1   
@<TRIPOS>SUBSTRUCTURE
     1 L89         1 TEMP              0 ****  ****    0 ROOT
