@<TRIPOS>MOLECULE
L8A
   68    71     1     0     0
SMALL
bcc


@<TRIPOS>ATOM
      1 C1           3.0520     0.0530    -1.3030 ca         1 L8A      -0.093500
      2 C2           3.5810     0.8670    -0.3060 ca         1 L8A      -0.146300
      3 C3           2.7170     1.3840     0.6570 ca         1 L8A      -0.093500
      4 C4           1.3640     1.0950     0.6170 ca         1 L8A      -0.113500
      5 C5           0.8330     0.2790    -0.3780 ca         1 L8A      -0.057300
      6 C6           1.6980    -0.2330    -1.3380 ca         1 L8A      -0.113500
      7 C7           5.0890     1.1000    -0.2890 c3         1 L8A       0.084100
      8 C8          -0.6210    -0.0920    -0.3670 c5         1 L8A      -0.097900
      9 C9           5.4580     2.5540     0.1180 c3         1 L8A       0.668900
     10 C10          5.7250     0.0630     0.6650 c3         1 L8A       0.668900
     11 S11         -0.8190    -1.4720     0.8480 sy         1 L8A       1.059300
     12 C12          0.4120    -2.6590     0.3860 ca         1 L8A      -0.284500
     13 C13          1.6940    -2.5520     0.9140 ca         1 L8A      -0.005500
     14 C14          2.6620    -3.4690     0.5450 ca         1 L8A      -0.193000
     15 C15          2.3180    -4.4740    -0.3400 ca         1 L8A       0.193900
     16 C16          1.0450    -4.6030    -0.8640 ca         1 L8A      -0.193000
     17 C17          0.0790    -3.6830    -0.4920 ca         1 L8A      -0.005500
     18 O18         -0.4700    -0.9570     2.1700 o          1 L8A      -0.572300
     19 O19         -2.1300    -2.0890     0.6500 o          1 L8A      -0.572300
     20 F20          6.7420     2.8090    -0.1120 f          1 L8A      -0.217800
     21 F21          4.7430     3.4100    -0.6150 f          1 L8A      -0.217800
     22 F22          5.2290     2.8280     1.4040 f          1 L8A      -0.217800
     23 C23         -1.5640     1.0410     0.0630 c5         1 L8A       0.108000
     24 N24         -2.8650     0.6420    -0.4240 n          1 L8A      -0.479800
     25 C25         -2.7150    -0.1760    -1.6280 c5         1 L8A       0.097000
     26 C26         -1.2180    -0.5030    -1.7130 c5         1 L8A      -0.075400
     27 O27          5.6930     0.8500    -1.5140 oh         1 L8A      -0.557800
     28 F28          5.2200     0.1460     1.8940 f          1 L8A      -0.217800
     29 F29          5.4860    -1.1670     0.2150 f          1 L8A      -0.217800
     30 F30          7.0460     0.2040     0.7600 f          1 L8A      -0.217800
     31 F31          3.2510    -5.3590    -0.6990 f          1 L8A      -0.129900
     32 C32         -3.8930     0.4810     0.4700 c          1 L8A       0.783100
     33 O33         -3.7450     0.6580     1.6710 o          1 L8A      -0.612100
     34 N34         -5.0950     0.0890    -0.0720 n          1 L8A      -0.458800
     35 C35         -6.1550    -0.2860     0.8480 c6         1 L8A       0.071000
     36 C36         -7.0510     0.8950     1.1950 c6         1 L8A       0.065500
     37 N37         -7.5710     1.4910    -0.0240 n          1 L8A      -0.485800
     38 C38         -6.5320     1.8740    -0.9580 c6         1 L8A       0.065500
     39 C39         -5.6290     0.6890    -1.2870 c6         1 L8A       0.071000
     40 C40         -8.9010     1.6200    -0.2320 c          1 L8A       0.676100
     41 C41         -9.3430     2.2250    -1.5450 c3         1 L8A      -0.177100
     42 O42         -9.7250     1.2640     0.6010 o          1 L8A      -0.601100
     43 H1           3.6850    -0.3890    -2.0590 ha         1 L8A       0.153000
     44 H2           3.0670     2.0120     1.4620 ha         1 L8A       0.153000
     45 H3           0.7290     1.5180     1.3830 ha         1 L8A       0.150000
     46 H4           1.3290    -0.8820    -2.1210 ha         1 L8A       0.150000
     47 H5           1.9470    -1.7620     1.6080 ha         1 L8A       0.159500
     48 H6           3.6660    -3.4040     0.9420 ha         1 L8A       0.160500
     49 H7           0.8080    -5.4110    -1.5430 ha         1 L8A       0.160500
     50 H8          -0.9240    -3.7810    -0.8820 ha         1 L8A       0.159500
     51 H9          -1.5810     1.2340     1.1320 h1         1 L8A       0.085700
     52 H10         -1.2250     1.9540    -0.4360 h1         1 L8A       0.085700
     53 H11         -3.3300    -1.0710    -1.5550 h1         1 L8A       0.063700
     54 H12         -3.0170     0.3610    -2.5280 h1         1 L8A       0.063700
     55 H13         -0.7490     0.1100    -2.4830 hc         1 L8A       0.060700
     56 H14         -1.0370    -1.5410    -1.9910 hc         1 L8A       0.060700
     57 H15          5.2000     1.2750    -2.2270 ho         1 L8A       0.441000
     58 H16         -6.7560    -1.0610     0.3630 h1         1 L8A       0.067450
     59 H17         -5.7330    -0.7170     1.7520 h1         1 L8A       0.067450
     60 H18         -7.8770     0.5690     1.8220 h1         1 L8A       0.064450
     61 H19         -6.4800     1.6450     1.7510 h1         1 L8A       0.064450
     62 H20         -6.9560     2.2620    -1.8800 h1         1 L8A       0.064450
     63 H21         -5.9280     2.6750    -0.5160 h1         1 L8A       0.064450
     64 H22         -4.8350     1.0380    -1.9400 h1         1 L8A       0.067450
     65 H23         -6.1960    -0.0680    -1.8350 h1         1 L8A       0.067450
     66 H24         -9.0290     1.6190    -2.3960 hc         1 L8A       0.059367
     67 H25        -10.4280     2.2860    -1.5560 hc         1 L8A       0.059367
     68 H26         -8.9410     3.2280    -1.6900 hc         1 L8A       0.059367
@<TRIPOS>BOND
     1     1     2 ar  
     2     1     6 ar  
     3     1    43 1   
     4     2     3 ar  
     5     2     7 1   
     6     3     4 ar  
     7     3    44 1   
     8     4     5 ar  
     9     4    45 1   
    10     5     6 ar  
    11     5     8 1   
    12     6    46 1   
    13     7     9 1   
    14     7    10 1   
    15     7    27 1   
    16     8    11 1   
    17     8    23 1   
    18     8    26 1   
    19     9    20 1   
    20     9    21 1   
    21     9    22 1   
    22    10    28 1   
    23    10    29 1   
    24    10    30 1   
    25    11    12 1   
    26    11    18 2   
    27    11    19 2   
    28    12    13 ar  
    29    12    17 ar  
    30    13    14 ar  
    31    13    47 1   
    32    14    15 ar  
    33    14    48 1   
    34    15    16 ar  
    35    15    31 1   
    36    16    17 ar  
    37    16    49 1   
    38    17    50 1   
    39    23    24 1   
    40    23    51 1   
    41    23    52 1   
    42    24    25 1   
    43    24    32 1   
    44    25    26 1   
    45    25    53 1   
    46    25    54 1   
    47    26    55 1   
    48    26    56 1   
    49    27    57 1   
    50    32    33 2   
    51    32    34 1   
    52    34    35 1   
    53    34    39 1   
    54    35    36 1   
    55    35    58 1   
    56    35    59 1   
    57    36    37 1   
    58    36    60 1   
    59    36    61 1   
    60    37    38 1   
    61    37    40 1   
    62    38    39 1   
    63    38    62 1   
    64    38    63 1   
    65    39    64 1   
    66    39    65 1   
    67    40    41 1   
    68    40    42 2   
    69    41    66 1   
    70    41    67 1   
    71    41    68 1   
@<TRIPOS>SUBSTRUCTURE
     1 L8A         1 TEMP              0 ****  ****    0 ROOT
