@<TRIPOS>MOLECULE
L8A
   68    71     1     0     0
SMALL
No Charge or Current Charge


@<TRIPOS>ATOM
      1 C1           2.6880     0.2370    -1.3510 ca         1 L8A      -0.075500
      2 C2           3.2250     1.1470    -0.4120 ca         1 L8A      -0.146300
      3 C3           2.4640     1.4000     0.7530 ca         1 L8A      -0.075500
      4 C4           1.2160     0.7870     0.9540 ca         1 L8A      -0.095500
      5 C5           0.6690    -0.1000     0.0020 ca         1 L8A      -0.057300
      6 C6           1.4400    -0.3730    -1.1480 ca         1 L8A      -0.095500
      7 C7           4.6330     1.7680    -0.6560 c3         1 L8A       0.107300
      8 C8          -0.6680    -0.8330     0.2760 c5         1 L8A      -0.208700
      9 C9           4.8800     3.1350     0.1110 c3         1 L8A       0.305000
     10 C10          5.7380     0.6980    -0.2880 c3         1 L8A       0.305000
     11 S11         -0.3710    -2.3400     1.3680 sy         1 L8A       1.028500
     12 C12          0.9330    -3.2850     0.5520 ca         1 L8A      -0.284500
     13 C13          2.2830    -2.9260     0.7510 ca         1 L8A       0.012500
     14 C14          3.3000    -3.6350     0.0900 ca         1 L8A      -0.175000
     15 C15          2.9710    -4.6980    -0.7630 ca         1 L8A       0.229000
     16 C16          1.6310    -5.0590    -0.9640 ca         1 L8A      -0.175000
     17 C17          0.6070    -4.3540    -0.3090 ca         1 L8A       0.012500
     18 O18          0.1810    -1.8460     2.6360 o          1 L8A      -0.501500
     19 O19         -1.5850    -3.1670     1.3680 o          1 L8A      -0.501500
     20 F20          5.9840     3.7720    -0.3490 f          1 L8A      -0.096500
     21 F21          3.8390     3.9840    -0.0630 f          1 L8A      -0.096500
     22 F22          5.0540     2.9660     1.4430 f          1 L8A      -0.096500
     23 C23         -1.6790     0.1420     0.9640 c5         1 L8A       0.108000
     24 N24         -2.9840    -0.1760     0.3320 n          1 L8A      -0.412800
     25 C25         -2.8830    -1.2500    -0.6870 c5         1 L8A       0.097000
     26 C26         -1.3850    -1.1850    -1.0730 c5         1 L8A      -0.075400
     27 O27          4.7180     2.0570    -2.0760 oh         1 L8A      -0.620000
     28 F28          5.6270     0.2930     0.9990 f          1 L8A      -0.096500
     29 F29          5.6340    -0.4100    -1.0610 f          1 L8A      -0.096500
     30 F30          6.9910     1.1820    -0.4570 f          1 L8A      -0.096500
     31 F31          3.9520    -5.3760    -1.3980 f          1 L8A      -0.165000
     32 C32         -4.1950     0.2080     0.9480 c          1 L8A       0.649100
     33 O33         -4.1940     0.6260     2.0970 o          1 L8A      -0.612100
     34 N34         -5.4090     0.0900     0.2390 n          1 L8A      -0.391800
     35 C35         -6.7140     0.0400     0.9320 c6         1 L8A       0.071000
     36 C36         -7.4840     1.3740     0.8240 c6         1 L8A       0.065500
     37 N37         -7.5980     1.9060    -0.5680 n          1 L8A      -0.418800
     38 C38         -6.3560     1.7660    -1.3950 c6         1 L8A       0.065500
     39 C39         -5.5560     0.4510    -1.1920 c6         1 L8A       0.071000
     40 C40         -8.5390     2.9290    -0.8390 c          1 L8A       0.609100
     41 C41         -8.6300     3.4930    -2.2590 c3         1 L8A      -0.177100
     42 O42         -9.3130     3.3200     0.0250 o          1 L8A      -0.601100
     43 H1           3.2460    -0.0240    -2.2480 ha         1 L8A       0.135000
     44 H2           2.8250     2.0580     1.5360 ha         1 L8A       0.135000
     45 H3           0.6870     0.9920     1.8810 ha         1 L8A       0.132000
     46 H4           1.0980    -1.0890    -1.8910 ha         1 L8A       0.132000
     47 H5           2.5470    -2.0940     1.4020 ha         1 L8A       0.141500
     48 H6           4.3410    -3.3580     0.2340 ha         1 L8A       0.142500
     49 H7           1.3880    -5.8830    -1.6290 ha         1 L8A       0.142500
     50 H8          -0.4310    -4.6380    -0.4790 ha         1 L8A       0.141500
     51 H9          -1.7020     0.0210     2.0560 h1         1 L8A       0.085700
     52 H10         -1.4330     1.1920     0.7550 h1         1 L8A       0.085700
     53 H11         -3.1630    -2.2200    -0.2570 h1         1 L8A       0.063700
     54 H12         -3.5100    -1.1010    -1.5710 h1         1 L8A       0.063700
     55 H13         -1.2430    -0.3890    -1.8150 hc         1 L8A       0.060700
     56 H14         -1.0340    -2.1170    -1.5300 hc         1 L8A       0.060700
     57 H15          3.8980     2.5380    -2.3220 ho         1 L8A       0.480000
     58 H16         -7.3210    -0.7570     0.4800 h1         1 L8A       0.067450
     59 H17         -6.5800    -0.2240     1.9910 h1         1 L8A       0.067450
     60 H18         -8.4870     1.2290     1.2490 h1         1 L8A       0.064450
     61 H19         -6.9740     2.1260     1.4430 h1         1 L8A       0.064450
     62 H20         -6.5970     1.8440    -2.4630 h1         1 L8A       0.064450
     63 H21         -5.6940     2.6110    -1.1540 h1         1 L8A       0.064450
     64 H22         -4.5780     0.6050    -1.6630 h1         1 L8A       0.067450
     65 H23         -6.0620    -0.3710    -1.7180 h1         1 L8A       0.067450
     66 H24         -8.6930     2.6650    -2.9740 hc         1 L8A       0.059367
     67 H25         -9.4630     4.1940    -2.3790 hc         1 L8A       0.059367
     68 H26         -7.6770     3.9670    -2.5200 hc         1 L8A       0.059367
@<TRIPOS>BOND
     1     1     2 ar  
     2     1     6 ar  
     3     1    43 1   
     4     2     3 ar  
     5     2     7 1   
     6     3     4 ar  
     7     3    44 1   
     8     4     5 ar  
     9     4    45 1   
    10     5     6 ar  
    11     5     8 1   
    12     6    46 1   
    13     7     9 1   
    14     7    10 1   
    15     7    27 1   
    16     8    11 1   
    17     8    23 1   
    18     8    26 1   
    19     9    20 1   
    20     9    21 1   
    21     9    22 1   
    22    10    28 1   
    23    10    29 1   
    24    10    30 1   
    25    11    12 1   
    26    11    18 2   
    27    11    19 2   
    28    12    13 ar  
    29    12    17 ar  
    30    13    14 ar  
    31    13    47 1   
    32    14    15 ar  
    33    14    48 1   
    34    15    16 ar  
    35    15    31 1   
    36    16    17 ar  
    37    16    49 1   
    38    17    50 1   
    39    23    24 1   
    40    23    51 1   
    41    23    52 1   
    42    24    25 1   
    43    24    32 1   
    44    25    26 1   
    45    25    53 1   
    46    25    54 1   
    47    26    55 1   
    48    26    56 1   
    49    27    57 1   
    50    32    33 2   
    51    32    34 1   
    52    34    35 1   
    53    34    39 1   
    54    35    36 1   
    55    35    58 1   
    56    35    59 1   
    57    36    37 1   
    58    36    60 1   
    59    36    61 1   
    60    37    38 1   
    61    37    40 1   
    62    38    39 1   
    63    38    62 1   
    64    38    63 1   
    65    39    64 1   
    66    39    65 1   
    67    40    41 1   
    68    40    42 2   
    69    41    66 1   
    70    41    67 1   
    71    41    68 1   
@<TRIPOS>SUBSTRUCTURE
     1 L8A         1 TEMP              0 ****  ****    0 ROOT
