@<TRIPOS>MOLECULE
L8B
   52    55     1     0     0
SMALL
No Charge or Current Charge


@<TRIPOS>ATOM
      1 CAA          3.9040     3.1810     3.3440 c3         1 L8B      -0.132400
      2 CAW          3.9700     2.8640     1.8790 cc         1 L8B       0.277300
      3 CAK          3.8430     1.5580     1.3830 cc         1 L8B      -0.235000
      4 NAQ          4.1530     3.7710     0.9350 nd         1 L8B      -0.360300
      5 OAT          4.1420     3.0000    -0.2860 os         1 L8B      -0.062700
      6 CAZ          3.9500     1.6820     0.0390 cd         1 L8B       0.192300
      7 CAM          3.8950     0.6470    -1.0430 c3         1 L8B      -0.194700
      8 CAU          2.6400    -0.2130    -0.8950 c          1 L8B       0.621100
      9 OAB          1.5630     0.1990    -1.3040 o          1 L8B      -0.590100
     10 N            2.7230    -1.4450    -0.2080 n          1 L8B      -0.395800
     11 CD2          3.9810    -2.2120    -0.0280 c5         1 L8B       0.069000
     12 CG           3.4740    -3.6540     0.2840 c5         1 L8B       0.155300
     13 OD1          3.2370    -4.4190    -0.9040 oh         1 L8B      -0.650000
     14 CB           2.1530    -3.3590     1.0330 c5         1 L8B      -0.082400
     15 CA           1.5140    -2.2270     0.1720 c5         1 L8B       0.035700
     16 C            0.4800    -1.4620     1.0590 c          1 L8B       0.595100
     17 O            0.6830    -0.4720     1.7520 o          1 L8B      -0.587100
     18 NAR         -0.7510    -2.0780     0.9620 ns         1 L8B      -0.498900
     19 CAL         -1.9640    -1.6100     1.6320 c3         1 L8B       0.152300
     20 CAX         -2.7870    -0.7110     0.7210 ca         1 L8B      -0.094300
     21 CAF         -2.5050     0.6650     0.6370 ca         1 L8B      -0.102000
     22 CAH         -3.2600     1.4960    -0.2070 ca         1 L8B      -0.083500
     23 CAE         -3.8330    -1.2450    -0.0540 ca         1 L8B      -0.102000
     24 CAG         -4.5900    -0.4150    -0.8990 ca         1 L8B      -0.083500
     25 CAY         -4.3120     0.9670    -0.9850 ca         1 L8B      -0.126500
     26 CBA         -5.0910     1.8520    -1.8630 cc         1 L8B       0.167500
     27 CAJ         -6.1370     1.4870    -2.6700 cd         1 L8B       0.231900
     28 NAP         -6.5840     2.6220    -3.3240 nd         1 L8B      -0.675000
     29 CAI         -5.7870     3.5910    -2.8740 cc         1 L8B       0.428900
     30 OAS         -4.8470     3.1800    -1.9710 os         1 L8B      -0.261000
     31 HAA1         4.7540     2.7360     3.8740 hc         1 L8B       0.056367
     32 HAA2         3.9250     4.2630     3.5180 hc         1 L8B       0.056367
     33 HAA3         2.9820     2.7850     3.7850 hc         1 L8B       0.056367
     34 HAK          3.6840     0.6570     1.9650 ha         1 L8B       0.153000
     35 HAM1         3.8580     1.1490    -2.0160 hc         1 L8B       0.080700
     36 HAM2         4.8070     0.0490    -0.9780 hc         1 L8B       0.080700
     37 HD21         4.6130    -2.1940    -0.9250 h1         1 L8B       0.055700
     38 HD22         4.5600    -1.8060     0.8130 h1         1 L8B       0.055700
     39 HA           1.0140    -2.6220    -0.7230 h1         1 L8B       0.080700
     40 HG           4.1840    -4.1890     0.9310 h1         1 L8B       0.053700
     41 HD1          4.1140    -4.6030    -1.3090 ho         1 L8B       0.446000
     42 HB1C         1.5070    -4.2410     1.1170 hc         1 L8B       0.073700
     43 HB2C         2.3620    -3.0150     2.0530 hc         1 L8B       0.073700
     44 HAR         -0.8180    -2.8890     0.3600 hn         1 L8B       0.319500
     45 HAL1        -2.5600    -2.4830     1.9280 h1         1 L8B       0.060700
     46 HAL2        -1.6970    -1.0680     2.5490 h1         1 L8B       0.060700
     47 HAF         -1.6960     1.0910     1.2260 ha         1 L8B       0.126000
     48 HAE         -4.0610    -2.3080    -0.0030 ha         1 L8B       0.126000
     49 HAH         -3.0210     2.5560    -0.2540 ha         1 L8B       0.122500
     50 HAG         -5.3910    -0.8610    -1.4830 ha         1 L8B       0.122500
     51 HAJ         -6.5860     0.5130    -2.8210 h4         1 L8B       0.051100
     52 HAI         -5.8120     4.6400    -3.1460 h5         1 L8B       0.081100
@<TRIPOS>BOND
     1     1     2 1   
     2     1    31 1   
     3     1    32 1   
     4     1    33 1   
     5     2     3 1   
     6     2     4 2   
     7     3     6 2   
     8     3    34 1   
     9     4     5 1   
    10     5     6 1   
    11     6     7 1   
    12     7     8 1   
    13     7    35 1   
    14     7    36 1   
    15     8     9 2   
    16     8    10 1   
    17    10    11 1   
    18    10    15 1   
    19    11    12 1   
    20    11    37 1   
    21    11    38 1   
    22    12    13 1   
    23    12    14 1   
    24    12    40 1   
    25    13    41 1   
    26    14    15 1   
    27    14    42 1   
    28    14    43 1   
    29    15    16 1   
    30    15    39 1   
    31    16    17 2   
    32    16    18 1   
    33    18    19 1   
    34    18    44 1   
    35    19    20 1   
    36    19    45 1   
    37    19    46 1   
    38    20    21 ar  
    39    20    23 ar  
    40    21    22 ar  
    41    21    47 1   
    42    22    25 ar  
    43    22    49 1   
    44    23    24 ar  
    45    23    48 1   
    46    24    25 ar  
    47    24    50 1   
    48    25    26 1   
    49    26    27 2   
    50    26    30 1   
    51    27    28 1   
    52    27    51 1   
    53    28    29 2   
    54    29    30 1   
    55    29    52 1   
@<TRIPOS>SUBSTRUCTURE
     1 L8B         1 TEMP              0 ****  ****    0 ROOT
