@<TRIPOS>MOLECULE
L8B
   52    55     1     0     0
SMALL
bcc


@<TRIPOS>ATOM
      1 CAA          2.4290     4.9680    -0.9070 c3         1 L8B      -0.132400
      2 CAW          2.7860     3.5310    -1.0430 cc         1 L8B       0.342600
      3 CAK          3.0600     2.6010    -0.0050 cc         1 L8B      -0.383600
      4 NAQ          2.8910     2.9620    -2.2100 nd         1 L8B      -0.360300
      5 OAT          3.2330     1.6610    -1.9760 os         1 L8B      -0.107100
      6 CAZ          3.3270     1.4510    -0.6620 cd         1 L8B       0.302000
      7 CAM          3.6820     0.0910    -0.1930 c3         1 L8B      -0.194700
      8 CAU          2.5040    -0.8650    -0.3020 c          1 L8B       0.688100
      9 OAB          1.4660    -0.5440    -0.8610 o          1 L8B      -0.590100
     10 N            2.6730    -2.0740     0.2470 n          1 L8B      -0.462800
     11 CD2          3.8680    -2.5840     0.9000 c5         1 L8B       0.069000
     12 CG           3.7010    -4.0940     0.7660 c5         1 L8B       0.132100
     13 OD1          4.0320    -4.5480    -0.5250 oh         1 L8B      -0.587800
     14 CB           2.2000    -4.2600     0.9500 c5         1 L8B      -0.082400
     15 CA           1.5980    -3.0480     0.2200 c5         1 L8B       0.035700
     16 C            0.3750    -2.5290     0.9660 c          1 L8B       0.662100
     17 O            0.4830    -1.8790     1.9920 o          1 L8B      -0.587100
     18 NAR         -0.8030    -2.9130     0.4490 ns         1 L8B      -0.565900
     19 CAL         -2.0660    -2.5910     1.0580 c3         1 L8B       0.152300
     20 CAX         -2.6030    -1.2170     0.7330 ca         1 L8B      -0.094300
     21 CAF         -3.8070    -0.8140     1.3070 ca         1 L8B      -0.120000
     22 CAH         -4.3530     0.4280     1.0370 ca         1 L8B      -0.101500
     23 CAE         -1.9530    -0.3350    -0.1220 ca         1 L8B      -0.120000
     24 CAG         -2.4930     0.9100    -0.3980 ca         1 L8B      -0.101500
     25 CAY         -3.6990     1.3130     0.1760 ca         1 L8B      -0.126500
     26 CBA         -4.2410     2.6240    -0.1300 cc         1 L8B       0.211900
     27 CAJ         -3.8260     3.6710    -0.8870 cd         1 L8B       0.231900
     28 NAP         -4.7590     4.6810    -0.8130 nd         1 L8B      -0.675000
     29 CAI         -5.6740     4.2210    -0.0370 cc         1 L8B       0.473300
     30 OAS         -5.4310     2.9870     0.4140 os         1 L8B      -0.349800
     31 HAA1         3.2480     5.5240    -0.4510 hc         1 L8B       0.056367
     32 HAA2         2.2090     5.4130    -1.8750 hc         1 L8B       0.056367
     33 HAA3         1.5570     5.0850    -0.2650 hc         1 L8B       0.056367
     34 HAK          3.0530     2.7720     1.0580 ha         1 L8B       0.171000
     35 HAM1         4.5240    -0.3030    -0.7700 hc         1 L8B       0.080700
     36 HAM2         4.0210     0.1550     0.8420 hc         1 L8B       0.080700
     37 HD21         4.7810    -2.2260     0.4230 h1         1 L8B       0.055700
     38 HD22         3.9000    -2.2950     1.9540 h1         1 L8B       0.055700
     39 HA           1.3410    -3.3030    -0.8130 h1         1 L8B       0.080700
     40 HG           4.2670    -4.6200     1.5420 h1         1 L8B       0.053700
     41 HD1          4.9730    -4.4050    -0.6690 ho         1 L8B       0.407000
     42 HB1C         1.8250    -5.2050     0.5620 hc         1 L8B       0.073700
     43 HB2C         1.9710    -4.2180     2.0160 hc         1 L8B       0.073700
     44 HAR         -0.8130    -3.3890    -0.4380 hn         1 L8B       0.319500
     45 HAL1        -2.7880    -3.3430     0.7340 h1         1 L8B       0.060700
     46 HAL2        -1.9790    -2.6980     2.1410 h1         1 L8B       0.060700
     47 HAF         -4.3310    -1.4830     1.9800 ha         1 L8B       0.144000
     48 HAE         -1.0140    -0.6110    -0.5810 ha         1 L8B       0.144000
     49 HAH         -5.2900     0.7010     1.5030 ha         1 L8B       0.140500
     50 HAG         -1.9610     1.5730    -1.0690 ha         1 L8B       0.140500
     51 HAJ         -2.9280     3.7660    -1.4750 h4         1 L8B       0.051100
     52 HAI         -6.5860     4.7000     0.2830 h5         1 L8B       0.081100
@<TRIPOS>BOND
     1     1     2 1   
     2     1    31 1   
     3     1    32 1   
     4     1    33 1   
     5     2     3 1   
     6     2     4 2   
     7     3     6 2   
     8     3    34 1   
     9     4     5 1   
    10     5     6 1   
    11     6     7 1   
    12     7     8 1   
    13     7    35 1   
    14     7    36 1   
    15     8     9 2   
    16     8    10 1   
    17    10    11 1   
    18    10    15 1   
    19    11    12 1   
    20    11    37 1   
    21    11    38 1   
    22    12    13 1   
    23    12    14 1   
    24    12    40 1   
    25    13    41 1   
    26    14    15 1   
    27    14    42 1   
    28    14    43 1   
    29    15    16 1   
    30    15    39 1   
    31    16    17 2   
    32    16    18 1   
    33    18    19 1   
    34    18    44 1   
    35    19    20 1   
    36    19    45 1   
    37    19    46 1   
    38    20    21 ar  
    39    20    23 ar  
    40    21    22 ar  
    41    21    47 1   
    42    22    25 ar  
    43    22    49 1   
    44    23    24 ar  
    45    23    48 1   
    46    24    25 ar  
    47    24    50 1   
    48    25    26 1   
    49    26    27 2   
    50    26    30 1   
    51    27    28 1   
    52    27    51 1   
    53    28    29 2   
    54    29    30 1   
    55    29    52 1   
@<TRIPOS>SUBSTRUCTURE
     1 L8B         1 TEMP              0 ****  ****    0 ROOT
