@<TRIPOS>MOLECULE
L8C
   37    38     1     0     0
SMALL
abcg2


@<TRIPOS>ATOM
      1 C10        -22.8490   -41.4530    35.1540 ca         1 L8C      -0.155600
      2 C13        -21.3700   -41.5430    34.9710 c          1 L8C       0.620700
      3 C17        -29.2510   -40.7990    34.9190 c6         1 L8C       0.162800
      4 C03        -28.2360   -38.7170    33.3150 c6         1 L8C       0.163800
      5 C04        -27.4920   -39.2470    34.5250 c6         1 L8C       0.162800
      6 C06        -27.0910   -41.1990    35.8730 c3         1 L8C       0.209100
      7 C07        -25.6090   -41.2780    35.6180 ca         1 L8C      -0.061300
      8 C08        -25.1220   -41.8230    34.4330 ca         1 L8C      -0.107500
      9 C09        -23.7590   -41.9090    34.2000 ca         1 L8C      -0.075000
     10 C11        -23.3320   -40.9290    36.3480 ca         1 L8C      -0.075000
     11 C12        -24.6970   -40.8310    36.5680 ca         1 L8C      -0.107500
     12 C18        -29.9910   -40.2670    33.7070 c6         1 L8C       0.163800
     13 N02        -29.6670   -38.8730    33.4830 n3         1 L8C      -0.717600
     14 N05        -27.8170   -40.6440    34.7510 n3         1 L8C      -0.720600
     15 N15        -20.9570   -41.3560    33.7030 ns         1 L8C      -0.394400
     16 O14        -20.6090   -41.7350    35.9040 o          1 L8C      -0.572100
     17 O16        -19.6560   -41.5620    33.3650 oh         1 L8C      -0.415100
     18 H1         -29.6110   -40.2750    35.8200 h1         1 L8C       0.040450
     19 H2         -29.4830   -41.8590    35.0450 h1         1 L8C       0.040450
     20 H3         -31.4740   -38.4140    32.5440 h1         1 L8C       0.030700
     21 H4         -30.1710   -37.2620    32.2550 h1         1 L8C       0.030700
     22 H5         -30.1740   -38.8190    31.4110 h1         1 L8C       0.030700
     23 H6         -27.8750   -39.2400    32.4120 h1         1 L8C       0.037950
     24 H7         -28.0030   -37.6570    33.1880 h1         1 L8C       0.037950
     25 H8         -26.4190   -39.1440    34.3520 h1         1 L8C       0.040450
     26 H9         -27.7400   -38.6300    35.4060 h1         1 L8C       0.040450
     27 H10        -27.2710   -40.6340    36.8030 h1         1 L8C       0.042700
     28 H11        -27.4700   -42.2100    36.0520 h1         1 L8C       0.042700
     29 H12        -25.8160   -42.1820    33.6840 ha         1 L8C       0.124000
     30 H13        -23.4180   -42.3610    33.2770 ha         1 L8C       0.123500
     31 H14        -22.6420   -40.5790    37.1040 ha         1 L8C       0.123500
     32 H15        -25.0570   -40.3980    37.4940 ha         1 L8C       0.124000
     33 H16        -31.0670   -40.3630    33.8750 h1         1 L8C       0.037950
     34 H17        -29.7430   -40.8890    32.8290 h1         1 L8C       0.037950
     35 H20        -21.5780   -41.1660    32.9300 hn         1 L8C       0.341500
     36 H21        -19.2090   -40.7110    33.4660 ho         1 L8C       0.439000
     37 C01        -30.4010   -38.3230    32.3680 c3         1 L8C       0.153100
@<TRIPOS>BOND
     1     1     2 1   
     2     1     9 ar  
     3     1    10 ar  
     4     2    15 1   
     5     2    16 2   
     6     3    12 1   
     7     3    14 1   
     8     3    18 1   
     9     3    19 1   
    10     4     5 1   
    11     4    13 1   
    12     4    23 1   
    13     4    24 1   
    14     5    14 1   
    15     5    25 1   
    16     5    26 1   
    17     6     7 1   
    18     6    14 1   
    19     6    27 1   
    20     6    28 1   
    21     7     8 ar  
    22     7    11 ar  
    23     8     9 ar  
    24     8    29 1   
    25     9    30 1   
    26    10    11 ar  
    27    10    31 1   
    28    11    32 1   
    29    12    13 1   
    30    12    33 1   
    31    12    34 1   
    32    13    37 1   
    33    15    17 1   
    34    15    35 1   
    35    17    36 1   
    36    20    37 1   
    37    21    37 1   
    38    22    37 1   
@<TRIPOS>SUBSTRUCTURE
     1 L8C         1 TEMP              0 ****  ****    0 ROOT
