@<TRIPOS>MOLECULE
L8C
   37    38     1     0     0
SMALL
No Charge or Current Charge


@<TRIPOS>ATOM
      1 C10        -22.7430   -41.1890    35.1470 ca         1 L8C      -0.155600
      2 C13        -21.2380   -41.0710    34.9940 c          1 L8C       0.620700
      3 C17        -29.3140   -40.9770    34.7400 c6         1 L8C       0.162800
      4 C03        -28.3670   -38.5270    33.4960 c6         1 L8C       0.163800
      5 C04        -27.5620   -39.2690    34.6120 c6         1 L8C       0.162800
      6 C06        -27.0740   -41.4660    35.6750 c3         1 L8C       0.209100
      7 C07        -25.5610   -41.3680    35.4940 ca         1 L8C      -0.061300
      8 C08        -24.9360   -41.9960    34.4030 ca         1 L8C      -0.107500
      9 C09        -23.5440   -41.9100    34.2270 ca         1 L8C      -0.075000
     10 C11        -23.3830   -40.5580    36.2390 ca         1 L8C      -0.075000
     11 C12        -24.7750   -40.6470    36.4110 ca         1 L8C      -0.107500
     12 C18        -30.1180   -40.2360    33.6230 c6         1 L8C       0.163800
     13 N02        -29.8390   -38.7670    33.6020 n3         1 L8C      -0.717600
     14 N05        -27.8420   -40.7400    34.6350 n3         1 L8C      -0.720600
     15 N15        -20.6590   -41.7670    33.9370 ns         1 L8C      -0.394400
     16 O14        -20.5600   -40.3860    35.7530 o          1 L8C      -0.572100
     17 O16        -19.2210   -41.9280    33.8440 oh         1 L8C      -0.415100
     18 H1         -29.6830   -40.6360    35.7190 h1         1 L8C       0.040450
     19 H2         -29.5320   -42.0530    34.6710 h1         1 L8C       0.040450
     20 H3         -31.6890   -38.2110    32.7060 h1         1 L8C       0.030700
     21 H4         -30.4200   -36.9720    32.6140 h1         1 L8C       0.030700
     22 H5         -30.3400   -38.4040    31.5600 h1         1 L8C       0.030700
     23 H6         -27.9990   -38.8680    32.5170 h1         1 L8C       0.037950
     24 H7         -28.1510   -37.4510    33.5640 h1         1 L8C       0.037950
     25 H8         -26.4910   -39.0820    34.4430 h1         1 L8C       0.040450
     26 H9         -27.8170   -38.8200    35.5830 h1         1 L8C       0.040450
     27 H10        -27.3430   -41.0900    36.6720 h1         1 L8C       0.042700
     28 H11        -27.3450   -42.5310    35.6570 h1         1 L8C       0.042700
     29 H12        -25.5360   -42.5500    33.6840 ha         1 L8C       0.124000
     30 H13        -23.1070   -42.4060    33.3630 ha         1 L8C       0.123500
     31 H14        -22.8000   -39.9930    36.9650 ha         1 L8C       0.123500
     32 H15        -25.2420   -40.1520    37.2590 ha         1 L8C       0.124000
     33 H16        -31.1910   -40.4170    33.7830 h1         1 L8C       0.037950
     34 H17        -29.8580   -40.6830    32.6510 h1         1 L8C       0.037950
     35 H20        -21.2180   -42.4480    33.4270 hn         1 L8C       0.341500
     36 H21        -19.0170   -41.6610    32.9170 ho         1 L8C       0.439000
     37 C01        -30.6120   -38.0520    32.5650 c3         1 L8C       0.153100
@<TRIPOS>BOND
     1     1     2 1   
     2     1     9 ar  
     3     1    10 ar  
     4     2    15 1   
     5     2    16 2   
     6     3    12 1   
     7     3    14 1   
     8     3    18 1   
     9     3    19 1   
    10     4     5 1   
    11     4    13 1   
    12     4    23 1   
    13     4    24 1   
    14     5    14 1   
    15     5    25 1   
    16     5    26 1   
    17     6     7 1   
    18     6    14 1   
    19     6    27 1   
    20     6    28 1   
    21     7     8 ar  
    22     7    11 ar  
    23     8     9 ar  
    24     8    29 1   
    25     9    30 1   
    26    10    11 ar  
    27    10    31 1   
    28    11    32 1   
    29    12    13 1   
    30    12    33 1   
    31    12    34 1   
    32    13    37 1   
    33    15    17 1   
    34    15    35 1   
    35    17    36 1   
    36    20    37 1   
    37    21    37 1   
    38    22    37 1   
@<TRIPOS>SUBSTRUCTURE
     1 L8C         1 TEMP              0 ****  ****    0 ROOT
