@<TRIPOS>MOLECULE
L8D
   56    60     1     0     0
SMALL
No Charge or Current Charge


@<TRIPOS>ATOM
      1 C4          -5.7490    -0.3970     1.1060 ca         1 L8D       0.372900
      2 C6          -6.2940     1.5550    -0.0070 ca         1 L8D       0.580300
      3 C11         -1.9040    -0.6000    -0.2310 c3         1 L8D       0.041700
      4 C7          -5.3940     1.2550    -1.0390 ca         1 L8D      -0.172000
      5 C8          -4.6470     0.0670    -0.9920 ca         1 L8D      -0.031300
      6 C9          -3.6750    -0.2830    -2.1080 c3         1 L8D      -0.035100
      7 C10         -2.2060    -0.1210    -1.6750 c3         1 L8D      -0.077400
      8 C12         -2.5950    -1.9510     0.1340 c          1 L8D       0.556000
      9 N2          -4.0090    -1.9660     0.2970 n          1 L8D      -0.225400
     10 C3          -4.8690    -0.8200     0.0810 ca         1 L8D      -0.133000
     11 C1          -4.6280    -3.1980     0.8380 c3         1 L8D       0.090300
     12 N5          -6.4650     0.7480     1.0600 nb         1 L8D      -0.743000
     13 O13         -1.9290    -2.9670     0.3130 o          1 L8D      -0.535000
     14 N14         -0.4440    -0.6820    -0.0020 ns         1 L8D      -0.481900
     15 C15          0.4110     0.3960     0.1690 c          1 L8D       0.550600
     16 O16         -0.0130     1.5510     0.1620 o          1 L8D      -0.574100
     17 C17          1.8650    -0.0060     0.3620 cc         1 L8D       0.458500
     18 N18          2.2660    -1.3400     0.3700 nc         1 L8D      -0.685000
     19 C19          3.5620    -1.2240     0.5260 cd         1 L8D       0.402800
     20 N20          3.9100     0.0510     0.6260 na         1 L8D      -0.058700
     21 N21          2.8420     0.8910     0.5550 nd         1 L8D      -0.433800
     22 C22          5.2660     0.3020     1.0230 c5         1 L8D       0.147600
     23 C23          5.8320    -1.1690     1.2950 c5         1 L8D      -0.100400
     24 C24          4.6670    -2.1750     0.8320 c5         1 L8D      -0.106700
     25 C25          6.1720     0.9160    -0.0490 ca         1 L8D      -0.104300
     26 C26          7.2200     1.7780     0.3350 ca         1 L8D      -0.082500
     27 C27          8.0700     2.3480    -0.6280 ca         1 L8D      -0.109500
     28 C28          7.8830     2.0620    -1.9900 ca         1 L8D      -0.094000
     29 C29          6.8460     1.2020    -2.3860 ca         1 L8D      -0.109500
     30 C30          5.9960     0.6320    -1.4230 ca         1 L8D      -0.082500
     31 O31         -7.0040     2.7300    -0.0980 os         1 L8D      -0.460300
     32 C32         -7.9480     3.1140     0.9200 c3         1 L8D       0.159900
     33 H1          -5.8830    -1.0000     2.0040 h4         1 L8D       0.031100
     34 H2          -2.3140     0.1410     0.4690 h1         1 L8D       0.090700
     35 H3          -5.2830     1.9520    -1.8630 ha         1 L8D       0.138000
     36 H4          -3.8430    -1.3190    -2.4290 hc         1 L8D       0.061700
     37 H5          -3.8570     0.3350    -2.9970 hc         1 L8D       0.061700
     38 H6          -1.9270     0.9360    -1.7600 hc         1 L8D       0.057700
     39 H7          -1.5740    -0.6690    -2.3840 hc         1 L8D       0.057700
     40 H8          -4.2860    -4.0710     0.2680 h1         1 L8D       0.047367
     41 H9          -4.3460    -3.3210     1.8920 h1         1 L8D       0.047367
     42 H10         -5.7210    -3.1420     0.7610 h1         1 L8D       0.047367
     43 H11         -0.0080    -1.6010     0.0400 hn         1 L8D       0.344500
     44 H12          5.2790     0.9090     1.9390 h1         1 L8D       0.079700
     45 H13          6.7730    -1.3690     0.7680 hc         1 L8D       0.067700
     46 H14          6.0470    -1.2970     2.3630 hc         1 L8D       0.067700
     47 H15          4.3970    -2.8860     1.6210 hc         1 L8D       0.078200
     48 H16          4.9550    -2.7530    -0.0530 hc         1 L8D       0.078200
     49 H17          7.3790     2.0070     1.3870 ha         1 L8D       0.115500
     50 H18          8.8740     3.0120    -0.3180 ha         1 L8D       0.117000
     51 H19          8.5410     2.5030    -2.7360 ha         1 L8D       0.116000
     52 H20          6.7010     0.9760    -3.4400 ha         1 L8D       0.117000
     53 H21          5.2020    -0.0360    -1.7510 ha         1 L8D       0.115500
     54 H22         -8.7480     2.3670     1.0150 h1         1 L8D       0.047367
     55 H23         -7.4530     3.2210     1.8940 h1         1 L8D       0.047367
     56 H24         -8.4120     4.0760     0.6680 h1         1 L8D       0.047367
@<TRIPOS>BOND
     1     1    10 ar  
     2     1    12 ar  
     3     1    33 1   
     4     2     4 ar  
     5     2    12 ar  
     6     2    31 1   
     7     3     7 1   
     8     3     8 1   
     9     3    14 1   
    10     3    34 1   
    11     4     5 ar  
    12     4    35 1   
    13     5     6 1   
    14     5    10 ar  
    15     6     7 1   
    16     6    36 1   
    17     6    37 1   
    18     7    38 1   
    19     7    39 1   
    20     8     9 1   
    21     8    13 2   
    22     9    10 1   
    23     9    11 1   
    24    11    40 1   
    25    11    41 1   
    26    11    42 1   
    27    14    15 1   
    28    14    43 1   
    29    15    16 2   
    30    15    17 1   
    31    17    18 1   
    32    17    21 2   
    33    18    19 2   
    34    19    20 1   
    35    19    24 1   
    36    20    21 1   
    37    20    22 1   
    38    22    23 1   
    39    22    25 1   
    40    22    44 1   
    41    23    24 1   
    42    23    45 1   
    43    23    46 1   
    44    24    47 1   
    45    24    48 1   
    46    25    26 ar  
    47    25    30 ar  
    48    26    27 ar  
    49    26    49 1   
    50    27    28 ar  
    51    27    50 1   
    52    28    29 ar  
    53    28    51 1   
    54    29    30 ar  
    55    29    52 1   
    56    30    53 1   
    57    31    32 1   
    58    32    54 1   
    59    32    55 1   
    60    32    56 1   
@<TRIPOS>SUBSTRUCTURE
     1 L8D         1 TEMP              0 ****  ****    0 ROOT
