@<TRIPOS>MOLECULE
L8D
   56    60     1     0     0
SMALL
abcg2


@<TRIPOS>ATOM
      1 C4          -4.8170     0.9090     1.2450 ca         1 L8D       0.372900
      2 C6          -5.8200     1.6130    -0.6660 ca         1 L8D       0.580300
      3 C11         -1.8440    -1.0280    -0.3640 c3         1 L8D       0.041700
      4 C7          -5.3650     0.4960    -1.3760 ca         1 L8D      -0.172000
      5 C8          -4.6140    -0.4490    -0.7140 ca         1 L8D      -0.031300
      6 C9          -4.0930    -1.6810    -1.3850 c3         1 L8D      -0.035100
      7 C10         -2.5710    -1.6510    -1.5590 c3         1 L8D      -0.077400
      8 C12         -2.3420    -1.6010     0.9670 c          1 L8D       0.556000
      9 N2          -3.5610    -1.1660     1.3800 n          1 L8D      -0.225400
     10 C3          -4.3140    -0.2260     0.6410 ca         1 L8D      -0.133000
     11 C1          -4.0870    -1.6260     2.6580 c3         1 L8D       0.090300
     12 N5          -5.5620     1.8100     0.6080 nb         1 L8D      -0.743000
     13 O13         -1.6820    -2.3980     1.6070 o          1 L8D      -0.535000
     14 N14         -0.4300    -1.2260    -0.5050 ns         1 L8D      -0.481900
     15 C15          0.4520    -0.5190     0.2160 c          1 L8D       0.550600
     16 O16          0.1410     0.3480     1.0160 o          1 L8D      -0.574100
     17 C17          1.8690    -0.8590    -0.0630 cc         1 L8D       0.458500
     18 N18          2.2460    -1.8060    -0.9580 nc         1 L8D      -0.685000
     19 C19          3.5540    -1.7400    -0.8960 cd         1 L8D       0.402800
     20 N20          3.9120    -0.8060    -0.0170 na         1 L8D      -0.058700
     21 N21          2.8600    -0.2320     0.5390 nd         1 L8D      -0.433800
     22 C22          5.3420    -0.6540     0.1940 c5         1 L8D       0.147600
     23 C23          5.8700    -1.4230    -1.0440 c5         1 L8D      -0.100400
     24 C24          4.7530    -2.4040    -1.4680 c5         1 L8D      -0.106700
     25 C25          5.7800     0.7800     0.2850 ca         1 L8D      -0.104300
     26 C26          6.6110     1.1840     1.3220 ca         1 L8D      -0.082500
     27 C27          7.0480     2.5010     1.4050 ca         1 L8D      -0.109500
     28 C28          6.6470     3.4260     0.4520 ca         1 L8D      -0.094000
     29 C29          5.8110     3.0280    -0.5860 ca         1 L8D      -0.109500
     30 C30          5.3820     1.7130    -0.6700 ca         1 L8D      -0.082500
     31 O31         -6.5470     2.5040    -1.3410 os         1 L8D      -0.460300
     32 C32         -7.0200     3.6490    -0.6470 c3         1 L8D       0.159900
     33 H1          -4.6160     1.1050     2.2930 h4         1 L8D       0.031100
     34 H2          -2.0360     0.0490    -0.3670 h1         1 L8D       0.090700
     35 H3          -5.6150     0.3720    -2.4220 ha         1 L8D       0.138000
     36 H4          -4.3750    -2.5510    -0.7850 hc         1 L8D       0.061700
     37 H5          -4.5640    -1.8110    -2.3590 hc         1 L8D       0.061700
     38 H6          -2.3030    -1.0760    -2.4470 hc         1 L8D       0.057700
     39 H7          -2.2170    -2.6730    -1.7160 hc         1 L8D       0.057700
     40 H8          -3.7790    -2.6520     2.8420 h1         1 L8D       0.047367
     41 H9          -3.7380    -1.0070     3.4860 h1         1 L8D       0.047367
     42 H10         -5.1730    -1.5910     2.6280 h1         1 L8D       0.047367
     43 H11         -0.0900    -1.9760    -1.0870 hn         1 L8D       0.344500
     44 H12          5.6140    -1.1750     1.1150 h1         1 L8D       0.079700
     45 H13          6.0500    -0.7140    -1.8530 hc         1 L8D       0.067700
     46 H14          6.8090    -1.9230    -0.8220 hc         1 L8D       0.067700
     47 H15          4.8860    -3.3930    -1.0230 hc         1 L8D       0.078200
     48 H16          4.6960    -2.5310    -2.5480 hc         1 L8D       0.078200
     49 H17          6.9220     0.4660     2.0710 ha         1 L8D       0.115500
     50 H18          7.6960     2.8030     2.2170 ha         1 L8D       0.117000
     51 H19          6.9820     4.4530     0.5150 ha         1 L8D       0.116000
     52 H20          5.4920     3.7460    -1.3310 ha         1 L8D       0.117000
     53 H21          4.7340     1.4170    -1.4880 ha         1 L8D       0.115500
     54 H22         -7.7000     3.3810     0.1620 h1         1 L8D       0.047367
     55 H23         -6.2020     4.2420    -0.2350 h1         1 L8D       0.047367
     56 H24         -7.5560     4.2420    -1.3840 h1         1 L8D       0.047367
@<TRIPOS>BOND
     1     1    10 ar  
     2     1    12 ar  
     3     1    33 1   
     4     2     4 ar  
     5     2    12 ar  
     6     2    31 1   
     7     3     7 1   
     8     3     8 1   
     9     3    14 1   
    10     3    34 1   
    11     4     5 ar  
    12     4    35 1   
    13     5     6 1   
    14     5    10 ar  
    15     6     7 1   
    16     6    36 1   
    17     6    37 1   
    18     7    38 1   
    19     7    39 1   
    20     8     9 1   
    21     8    13 2   
    22     9    10 1   
    23     9    11 1   
    24    11    40 1   
    25    11    41 1   
    26    11    42 1   
    27    14    15 1   
    28    14    43 1   
    29    15    16 2   
    30    15    17 1   
    31    17    18 1   
    32    17    21 2   
    33    18    19 2   
    34    19    20 1   
    35    19    24 1   
    36    20    21 1   
    37    20    22 1   
    38    22    23 1   
    39    22    25 1   
    40    22    44 1   
    41    23    24 1   
    42    23    45 1   
    43    23    46 1   
    44    24    47 1   
    45    24    48 1   
    46    25    26 ar  
    47    25    30 ar  
    48    26    27 ar  
    49    26    49 1   
    50    27    28 ar  
    51    27    50 1   
    52    28    29 ar  
    53    28    51 1   
    54    29    30 ar  
    55    29    52 1   
    56    30    53 1   
    57    31    32 1   
    58    32    54 1   
    59    32    55 1   
    60    32    56 1   
@<TRIPOS>SUBSTRUCTURE
     1 L8D         1 TEMP              0 ****  ****    0 ROOT
