@<TRIPOS>MOLECULE
L8F
   51    53     1     0     0
SMALL
abcg2


@<TRIPOS>ATOM
      1 N1          11.1480     0.5320    23.4200 na         1 L8F      -0.209700
      2 N3           7.5540    -1.8210    20.9320 n          1 L8F      -0.418800
      3 C4          12.7210     2.1300    23.3590 cc         1 L8F      -0.156400
      4 C5          11.4210     1.8470    23.6780 cd         1 L8F      -0.147100
      5 C6          12.2590    -0.0670    22.9070 ca         1 L8F      -0.038200
      6 C7          12.4520    -1.3870    22.4850 ca         1 L8F      -0.106300
      7 C8          11.3680    -2.4210    22.6160 c3         1 L8F       0.218100
      8 C10          7.6390    -2.2060    22.3270 c6         1 L8F       0.096500
      9 C13          6.6140    -2.3410    20.1100 c          1 L8F       0.609100
     10 C15         13.7060    -1.6950    21.9890 ca         1 L8F      -0.094000
     11 C17         14.5400     0.5520    22.3630 ca         1 L8F      -0.061000
     12 N           11.7970     4.9270    22.4940 ns         1 L8F      -0.501900
     13 N2          10.0610    -1.9070    22.2500 n3         1 L8F      -0.739600
     14 C1          10.4570     5.0050    22.4610 c          1 L8F       0.604100
     15 C18         13.2780     0.9090    22.8570 ca         1 L8F      -0.102800
     16 C11          8.6270    -0.9340    20.5320 c6         1 L8F       0.096500
     17 O1           5.7710    -3.1350    20.5080 o          1 L8F      -0.604100
     18 C2          12.5840     4.6540    23.6740 c3         1 L8F       0.097000
     19 C16         14.7390    -0.7430    21.9320 ca         1 L8F      -0.144000
     20 C9           8.9970    -2.8210    22.6240 c6         1 L8F       0.140800
     21 C12          9.9740    -1.5670    20.8410 c6         1 L8F       0.140800
     22 C14          6.6370    -1.8970    18.6650 c3         1 L8F      -0.176100
     23 C            9.8610     5.2510    21.0950 c3         1 L8F      -0.179100
     24 O            9.7480     4.8800    23.4530 o          1 L8F      -0.622100
     25 C3          13.4630     3.4180    23.5190 c3         1 L8F      -0.016200
     26 H1          10.2430     0.0870    23.4440 hn         1 L8F       0.372000
     27 H2          10.6500     2.4940    24.0680 h4         1 L8F       0.230000
     28 H3          11.3100    -2.7450    23.6600 h1         1 L8F       0.042700
     29 H4          11.6430    -3.3140    22.0310 h1         1 L8F       0.042700
     30 H5           7.4990    -1.3170    22.9510 h1         1 L8F       0.059700
     31 H6           6.8470    -2.9110    22.5630 h1         1 L8F       0.059700
     32 H7          13.8990    -2.7030    21.6390 ha         1 L8F       0.106000
     33 H8          15.3420     1.2790    22.3150 ha         1 L8F       0.111000
     34 H9          12.3020     5.0370    21.6290 hn         1 L8F       0.309500
     35 H11          8.5700    -0.7030    19.4720 h1         1 L8F       0.059700
     36 H12          8.5360     0.0110    21.0780 h1         1 L8F       0.059700
     37 H13         13.2230     5.5130    23.8920 h1         1 L8F       0.056700
     38 H14         11.9070     4.5430    24.5190 h1         1 L8F       0.056700
     39 H15         15.7040    -1.0380    21.5390 ha         1 L8F       0.110000
     40 H16          9.0660    -3.0290    23.6940 h1         1 L8F       0.046200
     41 H17          9.0830    -3.7860    22.0960 h1         1 L8F       0.046200
     42 H18         10.1140    -2.4540    20.2010 h1         1 L8F       0.046200
     43 H19         10.7630    -0.8560    20.5890 h1         1 L8F       0.046200
     44 H20          5.8020    -2.3560    18.1430 hc         1 L8F       0.060033
     45 H21          6.5500    -0.8140    18.5680 hc         1 L8F       0.060033
     46 H22          7.5590    -2.1970    18.1660 hc         1 L8F       0.060033
     47 H23          9.1640     6.0860    21.1460 hc         1 L8F       0.058367
     48 H24         10.6010     5.4630    20.3260 hc         1 L8F       0.058367
     49 H25          9.2930     4.3720    20.7900 hc         1 L8F       0.058367
     50 H26         14.1200     3.3690    24.3940 hc         1 L8F       0.046700
     51 H27         14.1330     3.5620    22.6650 hc         1 L8F       0.046700
@<TRIPOS>BOND
     1     1     4 1   
     2     1     5 1   
     3     1    26 1   
     4     2     8 1   
     5     2     9 1   
     6     2    16 1   
     7     3     4 2   
     8     3    15 1   
     9     3    25 1   
    10     4    27 1   
    11     5     6 ar  
    12     5    15 ar  
    13     6     7 1   
    14     6    10 ar  
    15     7    13 1   
    16     7    28 1   
    17     7    29 1   
    18     8    20 1   
    19     8    30 1   
    20     8    31 1   
    21     9    17 2   
    22     9    22 1   
    23    10    19 ar  
    24    10    32 1   
    25    11    15 ar  
    26    11    19 ar  
    27    11    33 1   
    28    12    14 1   
    29    12    18 1   
    30    12    34 1   
    31    13    20 1   
    32    13    21 1   
    33    14    23 1   
    34    14    24 2   
    35    16    21 1   
    36    16    35 1   
    37    16    36 1   
    38    18    25 1   
    39    18    37 1   
    40    18    38 1   
    41    19    39 1   
    42    20    40 1   
    43    20    41 1   
    44    21    42 1   
    45    21    43 1   
    46    22    44 1   
    47    22    45 1   
    48    22    46 1   
    49    23    47 1   
    50    23    48 1   
    51    23    49 1   
    52    25    50 1   
    53    25    51 1   
@<TRIPOS>SUBSTRUCTURE
     1 L8F         1 TEMP              0 ****  ****    0 ROOT
