@<TRIPOS>MOLECULE
L8F
   51    53     1     0     0
SMALL
No Charge or Current Charge


@<TRIPOS>ATOM
      1 N1          11.1390     0.5000    23.4910 na         1 L8F      -0.209700
      2 N3           7.6060    -2.0470    20.7580 n          1 L8F      -0.418800
      3 C4          12.7200     2.1600    23.3760 cc         1 L8F      -0.156400
      4 C5          11.3960     1.8740    23.7090 cd         1 L8F      -0.147100
      5 C6          12.3220    -0.0490    23.0390 ca         1 L8F      -0.038200
      6 C7          12.5660    -1.3900    22.6880 ca         1 L8F      -0.106300
      7 C8          11.4870    -2.4710    22.8130 c3         1 L8F       0.218100
      8 C10          7.6970    -2.6240    22.1370 c6         1 L8F       0.096500
      9 C13          6.3330    -1.8280    20.1860 c          1 L8F       0.609100
     10 C15         13.8660    -1.7160    22.2370 ca         1 L8F      -0.094000
     11 C17         14.5870     0.6120    22.5090 ca         1 L8F      -0.061000
     12 N           11.7150     4.9150    22.3460 ns         1 L8F      -0.501900
     13 N2          10.1520    -2.0710    22.2970 n3         1 L8F      -0.739600
     14 C1          10.3400     4.9760    22.3220 c          1 L8F       0.604100
     15 C18         13.2910     0.9100    22.9530 ca         1 L8F      -0.102800
     16 C11          8.7920    -1.2330    20.3400 c6         1 L8F       0.096500
     17 O1           5.3120    -2.1830    20.7620 o          1 L8F      -0.604100
     18 C2          12.5360     4.7290    23.5500 c3         1 L8F       0.097000
     19 C16         14.8690    -0.7210    22.1460 ca         1 L8F      -0.144000
     20 C9           9.1130    -3.0960    22.5650 c6         1 L8F       0.140800
     21 C12         10.1640    -1.7580    20.8440 c6         1 L8F       0.140800
     22 C14          6.2470    -1.2020    18.7910 c3         1 L8F      -0.176100
     23 C            9.7340     5.1080    20.9310 c3         1 L8F      -0.179100
     24 O            9.6560     4.9310    23.3340 o          1 L8F      -0.622100
     25 C3          13.4450     3.4840    23.4520 c3         1 L8F      -0.016200
     26 H1          10.2550     0.0060    23.5800 hn         1 L8F       0.372000
     27 H2          10.6220     2.5430    24.0760 h4         1 L8F       0.230000
     28 H3          11.4050    -2.7330    23.8770 h1         1 L8F       0.042700
     29 H4          11.8290    -3.3760    22.2920 h1         1 L8F       0.042700
     30 H5           7.3570    -1.8610    22.8500 h1         1 L8F       0.059700
     31 H6           7.0090    -3.4760    22.2250 h1         1 L8F       0.059700
     32 H7          14.1040    -2.7400    21.9580 ha         1 L8F       0.106000
     33 H8          15.3510     1.3830    22.4440 ha         1 L8F       0.111000
     34 H9          12.1830     4.9580    21.4490 hn         1 L8F       0.309500
     35 H11          8.8440    -1.1720    19.2450 h1         1 L8F       0.059700
     36 H12          8.6550    -0.2090    20.7150 h1         1 L8F       0.059700
     37 H13         13.1640     5.6210    23.6760 h1         1 L8F       0.056700
     38 H14         11.8970     4.6460    24.4390 h1         1 L8F       0.056700
     39 H15         15.8640    -0.9870    21.7980 ha         1 L8F       0.110000
     40 H16          9.0860    -3.3480    23.6350 h1         1 L8F       0.046200
     41 H17          9.3500    -4.0240    22.0240 h1         1 L8F       0.046200
     42 H18         10.4270    -2.6580    20.2680 h1         1 L8F       0.046200
     43 H19         10.9260    -0.9990    20.6140 h1         1 L8F       0.046200
     44 H20          5.2210    -1.1730    18.4080 hc         1 L8F       0.060033
     45 H21          6.6860    -0.1990    18.8180 hc         1 L8F       0.060033
     46 H22          6.9150    -1.7420    18.1110 hc         1 L8F       0.060033
     47 H23          8.6400     5.1600    20.9500 hc         1 L8F       0.058367
     48 H24         10.1730     5.9780    20.4310 hc         1 L8F       0.058367
     49 H25         10.0890     4.2780    20.3080 hc         1 L8F       0.058367
     50 H26         14.1070     3.4740    24.3260 hc         1 L8F       0.046700
     51 H27         14.0970     3.5970    22.5770 hc         1 L8F       0.046700
@<TRIPOS>BOND
     1     1     4 1   
     2     1     5 1   
     3     1    26 1   
     4     2     8 1   
     5     2     9 1   
     6     2    16 1   
     7     3     4 2   
     8     3    15 1   
     9     3    25 1   
    10     4    27 1   
    11     5     6 ar  
    12     5    15 ar  
    13     6     7 1   
    14     6    10 ar  
    15     7    13 1   
    16     7    28 1   
    17     7    29 1   
    18     8    20 1   
    19     8    30 1   
    20     8    31 1   
    21     9    17 2   
    22     9    22 1   
    23    10    19 ar  
    24    10    32 1   
    25    11    15 ar  
    26    11    19 ar  
    27    11    33 1   
    28    12    14 1   
    29    12    18 1   
    30    12    34 1   
    31    13    20 1   
    32    13    21 1   
    33    14    23 1   
    34    14    24 2   
    35    16    21 1   
    36    16    35 1   
    37    16    36 1   
    38    18    25 1   
    39    18    37 1   
    40    18    38 1   
    41    19    39 1   
    42    20    40 1   
    43    20    41 1   
    44    21    42 1   
    45    21    43 1   
    46    22    44 1   
    47    22    45 1   
    48    22    46 1   
    49    23    47 1   
    50    23    48 1   
    51    23    49 1   
    52    25    50 1   
    53    25    51 1   
@<TRIPOS>SUBSTRUCTURE
     1 L8F         1 TEMP              0 ****  ****    0 ROOT
