@<TRIPOS>MOLECULE
L8G
   64    66     1     0     0
SMALL
abcg2


@<TRIPOS>ATOM
      1 C1          -2.0150    -1.7990     2.4240 c3         1 L8G       0.086600
      2 C2          -2.8410    -0.5140     2.4130 c3         1 L8G      -0.029200
      3 C3          -2.4530     0.3020     1.2220 c2         1 L8G      -0.195200
      4 C4          -3.2390     0.5270     0.1770 c2         1 L8G      -0.245200
      5 C5          -2.8350     1.2300    -1.0890 c3         1 L8G       0.155900
      6 C6          -0.9930     2.8830    -0.9960 c          1 L8G       0.595100
      7 C7           0.5140     3.0590    -0.7700 c3         1 L8G       0.035700
      8 C8           1.3300     3.1030    -2.0770 c3         1 L8G      -0.064700
      9 C9           1.2420     1.8210    -2.8990 c3         1 L8G      -0.092100
     10 C10          0.9630     4.3140    -2.9270 c3         1 L8G      -0.092100
     11 C11          1.4900     2.3260     1.3770 c          1 L8G       0.611100
     12 C12          1.7220     1.0830     2.2690 c5         1 L8G       0.043200
     13 C13          1.0150     1.3140     3.6000 c3         1 L8G      -0.069100
     14 C14          3.2370     0.8520     2.4860 c5         1 L8G       0.035600
     15 C15          2.0230    -0.8000     1.0390 ce         1 L8G       0.402200
     16 C16          1.6480    -1.8990     0.1250 ca         1 L8G       0.312700
     17 C17          2.1530    -3.1740     0.3130 ca         1 L8G      -0.128000
     18 C18          1.7320    -4.1700    -0.5560 ca         1 L8G      -0.068000
     19 C19          0.8670    -3.8340    -1.5790 ca         1 L8G      -0.142000
     20 C20          0.4480    -2.5100    -1.7140 ca         1 L8G       0.344300
     21 C21         -0.3730    -2.1460    -2.9280 c3         1 L8G       0.055700
     22 C22         -2.4120    -0.9760    -2.2620 c          1 L8G       0.600100
     23 C23         -3.1440     0.3490    -2.3160 c3         1 L8G      -0.171400
     24 N1          -1.4420     1.6140    -1.0710 ns         1 L8G      -0.512900
     25 N2           1.0180     2.0640     0.1480 ns         1 L8G      -0.501900
     26 N3           1.1580    -0.0740     1.6060 n2         1 L8G      -0.574900
     27 N4           0.8180    -1.5640    -0.8640 nb         1 L8G      -0.655000
     28 N5          -1.1800    -0.9650    -2.8140 ns         1 L8G      -0.503900
     29 O1          -1.7190     3.8570    -1.1100 o          1 L8G      -0.593100
     30 O2           1.7210     3.4430     1.8040 o          1 L8G      -0.585100
     31 O3          -2.8790    -1.9700    -1.7320 o          1 L8G      -0.588100
     32 S1          -2.4210    -2.7630     3.9190 sh         1 L8G      -0.472800
     33 S2           3.7200    -0.3880     1.2480 ss         1 L8G      -0.336200
     34 H1          -2.2340    -2.3870     1.5330 h1         1 L8G       0.069700
     35 H2          -0.9520    -1.5580     2.4180 h1         1 L8G       0.069700
     36 H3          -3.9070    -0.7510     2.3900 hc         1 L8G       0.058200
     37 H4          -2.6510     0.0470     3.3330 hc         1 L8G       0.058200
     38 H5          -1.4260     0.6560     1.2200 ha         1 L8G       0.179000
     39 H6          -4.2600     0.1540     0.1830 ha         1 L8G       0.183000
     40 H7          -3.4260     2.1400    -1.2030 h1         1 L8G       0.094700
     41 H8           0.6250     4.0290    -0.2830 h1         1 L8G       0.111700
     42 H9           2.3670     3.2250    -1.7490 hc         1 L8G       0.061700
     43 H10          0.2570     1.7160    -3.3590 hc         1 L8G       0.038700
     44 H11          1.9700     1.8480    -3.7090 hc         1 L8G       0.038700
     45 H12          1.4500     0.9200    -2.3160 hc         1 L8G       0.038700
     46 H13         -0.0410     4.2310    -3.3450 hc         1 L8G       0.038700
     47 H14          1.0080     5.2380    -2.3490 hc         1 L8G       0.038700
     48 H15          1.6570     4.4080    -3.7620 hc         1 L8G       0.038700
     49 H16         -0.0490     1.5040     3.4500 hc         1 L8G       0.057700
     50 H17          1.1170     0.4290     4.2260 hc         1 L8G       0.057700
     51 H18          1.4440     2.1630     4.1290 hc         1 L8G       0.057700
     52 H19          3.8310     1.7550     2.3610 h1         1 L8G       0.095700
     53 H20          3.4290     0.4490     3.4810 h1         1 L8G       0.095700
     54 H21          2.8350    -3.3840     1.1260 ha         1 L8G       0.140000
     55 H22          2.0770    -5.1880    -0.4360 ha         1 L8G       0.129000
     56 H23          0.5230    -4.5830    -2.2810 ha         1 L8G       0.130000
     57 H24          0.3190    -1.9900    -3.7580 h1         1 L8G       0.062200
     58 H25         -0.9920    -3.0010    -3.2050 h1         1 L8G       0.062200
     59 H26         -4.2150     0.1470    -2.3380 hc         1 L8G       0.072200
     60 H27         -2.8930     0.9070    -3.2200 hc         1 L8G       0.072200
     61 H28         -0.7920     0.8470    -0.9830 hn         1 L8G       0.326500
     62 H29          0.9120     1.0880    -0.0810 hn         1 L8G       0.333500
     63 H30         -0.8880    -0.1530    -3.3310 hn         1 L8G       0.320500
     64 H31         -1.6150    -3.8050     3.6890 hs         1 L8G       0.210800
@<TRIPOS>BOND
     1     1     2 1   
     2     1    32 1   
     3     1    34 1   
     4     1    35 1   
     5     2     3 1   
     6     2    36 1   
     7     2    37 1   
     8     3     4 2   
     9     3    38 1   
    10     4     5 1   
    11     4    39 1   
    12     5    23 1   
    13     5    24 1   
    14     5    40 1   
    15     6     7 1   
    16     6    24 1   
    17     6    29 2   
    18     7     8 1   
    19     7    25 1   
    20     7    41 1   
    21     8     9 1   
    22     8    10 1   
    23     8    42 1   
    24     9    43 1   
    25     9    44 1   
    26     9    45 1   
    27    10    46 1   
    28    10    47 1   
    29    10    48 1   
    30    11    12 1   
    31    11    25 1   
    32    11    30 2   
    33    12    13 1   
    34    12    14 1   
    35    12    26 1   
    36    13    49 1   
    37    13    50 1   
    38    13    51 1   
    39    14    33 1   
    40    14    52 1   
    41    14    53 1   
    42    15    16 1   
    43    15    26 2   
    44    15    33 1   
    45    16    17 ar  
    46    16    27 ar  
    47    17    18 ar  
    48    17    54 1   
    49    18    19 ar  
    50    18    55 1   
    51    19    20 ar  
    52    19    56 1   
    53    20    21 1   
    54    20    27 ar  
    55    21    28 1   
    56    21    57 1   
    57    21    58 1   
    58    22    23 1   
    59    22    28 1   
    60    22    31 2   
    61    23    59 1   
    62    23    60 1   
    63    24    61 1   
    64    25    62 1   
    65    28    63 1   
    66    32    64 1   
@<TRIPOS>SUBSTRUCTURE
     1 L8G         1 TEMP              0 ****  ****    0 ROOT
