@<TRIPOS>MOLECULE
L8G
   64    66     1     0     0
SMALL
No Charge or Current Charge


@<TRIPOS>ATOM
      1 C1          -1.9940    -1.3450     3.1980 c3         1 L8G       0.086600
      2 C2          -3.2500    -0.5820     2.7330 c3         1 L8G      -0.029200
      3 C3          -2.9510     0.3400     1.5700 c2         1 L8G      -0.195200
      4 C4          -3.3300     0.1240     0.2970 c2         1 L8G      -0.245200
      5 C5          -2.9860     0.9980    -0.8960 c3         1 L8G       0.155900
      6 C6          -1.0420     2.5590    -1.3220 c          1 L8G       0.595100
      7 C7           0.4240     2.9000    -0.8830 c3         1 L8G       0.035700
      8 C8           1.4570     3.0330    -2.0450 c3         1 L8G      -0.064700
      9 C9           1.5690     1.7590    -2.9140 c3         1 L8G      -0.092100
     10 C10          1.2280     4.2890    -2.9190 c3         1 L8G      -0.092100
     11 C11          1.5830     2.2730     1.2970 c          1 L8G       0.611100
     12 C12          1.7350     1.0000     2.2270 c5         1 L8G       0.043200
     13 C13          1.0450     1.2850     3.5840 c3         1 L8G      -0.069100
     14 C14          3.2500     0.6860     2.3910 c5         1 L8G       0.035600
     15 C15          1.9920    -0.8820     0.9230 ce         1 L8G       0.402200
     16 C16          1.5780    -1.8880    -0.1160 ca         1 L8G       0.312700
     17 C17          1.9320    -3.2410     0.0410 ca         1 L8G      -0.128000
     18 C18          1.5570    -4.1710    -0.9410 ca         1 L8G      -0.068000
     19 C19          0.8490    -3.7050    -2.0590 ca         1 L8G      -0.142000
     20 C20          0.5360    -2.3360    -2.1600 ca         1 L8G       0.344300
     21 C21         -0.1770    -1.7980    -3.4090 c3         1 L8G       0.055700
     22 C22         -2.3340    -0.9520    -2.4120 c          1 L8G       0.600100
     23 C23         -3.2150     0.2880    -2.2490 c3         1 L8G      -0.171400
     24 N1          -1.6030     1.4340    -0.7450 ns         1 L8G      -0.512900
     25 N2           0.9130     1.9410     0.1380 ns         1 L8G      -0.501900
     26 N3           1.1190    -0.2560     1.6580 n2         1 L8G      -0.574900
     27 N4           0.8920    -1.4400    -1.2050 nb         1 L8G      -0.655000
     28 N5          -1.1950    -0.7610    -3.1580 ns         1 L8G      -0.503900
     29 O1          -1.6810     3.2540    -2.0990 o          1 L8G      -0.593100
     30 O2           1.9230     3.4200     1.5580 o          1 L8G      -0.585100
     31 O3          -2.6360    -2.0460    -1.9560 o          1 L8G      -0.588100
     32 S1          -2.3170    -2.5020     4.6100 sh         1 L8G      -0.472800
     33 S2           3.6760    -0.2910     0.8890 ss         1 L8G      -0.336200
     34 H1          -1.5910    -1.9240     2.3570 h1         1 L8G       0.069700
     35 H2          -1.2260    -0.6250     3.5090 h1         1 L8G       0.069700
     36 H3          -4.0180    -1.3130     2.4530 hc         1 L8G       0.058200
     37 H4          -3.6570    -0.0080     3.5740 hc         1 L8G       0.058200
     38 H5          -2.3660     1.2230     1.8400 ha         1 L8G       0.179000
     39 H6          -3.9190    -0.7620     0.0530 ha         1 L8G       0.183000
     40 H7          -3.6310     1.8890    -0.8650 h1         1 L8G       0.094700
     41 H8           0.3410     3.8810    -0.3950 h1         1 L8G       0.111700
     42 H9           2.4370     3.1770    -1.5710 hc         1 L8G       0.061700
     43 H10          0.6240     1.5440    -3.4240 hc         1 L8G       0.038700
     44 H11          2.3460     1.8820    -3.6780 hc         1 L8G       0.038700
     45 H12          1.8430     0.8930    -2.3020 hc         1 L8G       0.038700
     46 H13          0.3180     4.1980    -3.5230 hc         1 L8G       0.038700
     47 H14          1.1420     5.1880    -2.2960 hc         1 L8G       0.038700
     48 H15          2.0700     4.4370    -3.6050 hc         1 L8G       0.038700
     49 H16         -0.0180     1.5150     3.4460 hc         1 L8G       0.057700
     50 H17          1.1160     0.4220     4.2570 hc         1 L8G       0.057700
     51 H18          1.5060     2.1410     4.0920 hc         1 L8G       0.057700
     52 H19          3.8740     1.5860     2.4760 h1         1 L8G       0.095700
     53 H20          3.4260     0.0620     3.2770 h1         1 L8G       0.095700
     54 H21          2.4890    -3.5610     0.9190 ha         1 L8G       0.140000
     55 H22          1.8160    -5.2240    -0.8420 ha         1 L8G       0.129000
     56 H23          0.5550    -4.3930    -2.8470 ha         1 L8G       0.130000
     57 H24          0.5800    -1.3800    -4.0850 h1         1 L8G       0.062200
     58 H25         -0.6610    -2.6320    -3.9340 h1         1 L8G       0.062200
     59 H26         -4.2680    -0.0100    -2.3120 hc         1 L8G       0.072200
     60 H27         -2.9850     1.0090    -3.0410 hc         1 L8G       0.072200
     61 H28         -1.0310     0.9260    -0.0850 hn         1 L8G       0.326500
     62 H29          0.7650     0.9460     0.0000 hn         1 L8G       0.333500
     63 H30         -1.0280     0.1770    -3.4990 hn         1 L8G       0.320500
     64 H31         -1.0440    -2.9560     4.7210 hs         1 L8G       0.210800
@<TRIPOS>BOND
     1     1     2 1   
     2     1    32 1   
     3     1    34 1   
     4     1    35 1   
     5     2     3 1   
     6     2    36 1   
     7     2    37 1   
     8     3     4 2   
     9     3    38 1   
    10     4     5 1   
    11     4    39 1   
    12     5    23 1   
    13     5    24 1   
    14     5    40 1   
    15     6     7 1   
    16     6    24 1   
    17     6    29 2   
    18     7     8 1   
    19     7    25 1   
    20     7    41 1   
    21     8     9 1   
    22     8    10 1   
    23     8    42 1   
    24     9    43 1   
    25     9    44 1   
    26     9    45 1   
    27    10    46 1   
    28    10    47 1   
    29    10    48 1   
    30    11    12 1   
    31    11    25 1   
    32    11    30 2   
    33    12    13 1   
    34    12    14 1   
    35    12    26 1   
    36    13    49 1   
    37    13    50 1   
    38    13    51 1   
    39    14    33 1   
    40    14    52 1   
    41    14    53 1   
    42    15    16 1   
    43    15    26 2   
    44    15    33 1   
    45    16    17 ar  
    46    16    27 ar  
    47    17    18 ar  
    48    17    54 1   
    49    18    19 ar  
    50    18    55 1   
    51    19    20 ar  
    52    19    56 1   
    53    20    21 1   
    54    20    27 ar  
    55    21    28 1   
    56    21    57 1   
    57    21    58 1   
    58    22    23 1   
    59    22    28 1   
    60    22    31 2   
    61    23    59 1   
    62    23    60 1   
    63    24    61 1   
    64    25    62 1   
    65    28    63 1   
    66    32    64 1   
@<TRIPOS>SUBSTRUCTURE
     1 L8G         1 TEMP              0 ****  ****    0 ROOT
