@<TRIPOS>MOLECULE
L8H
   24    25     1     0     0
SMALL
abcg2


@<TRIPOS>ATOM
      1 N            2.3950    -2.5860     0.1640 nv         1 L8H      -1.077000
      2 CAA          2.5290     2.4380     0.0300 c3         1 L8H       0.147900
      3 CAF         -3.2340    -0.2530    -0.0150 ca         1 L8H      -0.086000
      4 CAG         -2.8500     1.1020    -0.0300 ca         1 L8H      -0.142000
      5 CAH         -2.2870    -1.2410     0.0150 ca         1 L8H      -0.126000
      6 CAI         -1.5200     1.4370    -0.0140 ca         1 L8H      -0.059000
      7 CAJ          1.8070    -0.2590     0.0620 ca         1 L8H      -0.268000
      8 CAK          0.0750    -1.9470     0.0570 ca         1 L8H      -0.229000
      9 OAQ          1.1700     2.0490     0.0120 os         1 L8H      -0.340100
     10 CAT          1.4140    -1.6250     0.0770 ca         1 L8H       0.335000
     11 CAU          0.8710     0.7410     0.0300 ca         1 L8H       0.191100
     12 CAV         -0.9050    -0.9310     0.0310 ca         1 L8H       0.037000
     13 CAW         -0.5260     0.4360     0.0160 ca         1 L8H      -0.093000
     14 HN           3.2960    -2.3370    -0.2090 hn         1 L8H       0.450000
     15 HAA          3.0370     2.0890     0.9330 h1         1 L8H       0.041700
     16 HAAA         3.0690     2.0680    -0.8450 h1         1 L8H       0.041700
     17 HAAB         2.5400     3.5250     0.0170 h1         1 L8H       0.041700
     18 HAF         -4.2850    -0.5110    -0.0260 ha         1 L8H       0.109000
     19 HAG         -3.6050     1.8770    -0.0530 ha         1 L8H       0.112000
     20 HAH         -2.5880    -2.2820     0.0260 ha         1 L8H       0.111000
     21 HAI         -1.2350     2.4800    -0.0260 ha         1 L8H       0.122000
     22 HAJ          2.8670    -0.0350     0.0800 ha         1 L8H       0.115000
     23 HAK         -0.2370    -2.9850     0.0640 ha         1 L8H       0.114000
     24 H11          2.1210    -3.5190    -0.0960 hn         1 L8H       0.450000
@<TRIPOS>BOND
     1     1    10 1   
     2     1    14 1   
     3     1    24 1   
     4     2     9 1   
     5     2    15 1   
     6     2    16 1   
     7     2    17 1   
     8     3     4 ar  
     9     3     5 ar  
    10     3    18 1   
    11     4     6 ar  
    12     4    19 1   
    13     5    12 ar  
    14     5    20 1   
    15     6    13 ar  
    16     6    21 1   
    17     7    10 ar  
    18     7    11 ar  
    19     7    22 1   
    20     8    10 ar  
    21     8    12 ar  
    22     8    23 1   
    23     9    11 1   
    24    11    13 ar  
    25    12    13 ar  
@<TRIPOS>SUBSTRUCTURE
     1 L8H         1 TEMP              0 ****  ****    0 ROOT
