@<TRIPOS>MOLECULE
L8H
   24    25     1     0     0
SMALL
No Charge or Current Charge


@<TRIPOS>ATOM
      1 N            2.3470    -2.6020     0.0780 nv         1 L8H      -1.077000
      2 CAA          2.5880     2.5120     0.0290 c3         1 L8H       0.147900
      3 CAF         -3.2680    -0.2730    -0.0110 ca         1 L8H      -0.086000
      4 CAG         -2.8850     1.0780    -0.0210 ca         1 L8H      -0.142000
      5 CAH         -2.2880    -1.2780     0.0110 ca         1 L8H      -0.126000
      6 CAI         -1.5240     1.4270    -0.0090 ca         1 L8H      -0.059000
      7 CAJ          1.8110    -0.2790     0.0480 ca         1 L8H      -0.268000
      8 CAK          0.0510    -1.9480     0.0450 ca         1 L8H      -0.229000
      9 OAQ          1.2140     2.0860     0.0170 os         1 L8H      -0.340100
     10 CAT          1.4070    -1.6160     0.0580 ca         1 L8H       0.335000
     11 CAU          0.8470     0.7520     0.0260 ca         1 L8H       0.191100
     12 CAV         -0.9230    -0.9360     0.0230 ca         1 L8H       0.037000
     13 CAW         -0.5290     0.4220     0.0130 ca         1 L8H      -0.093000
     14 HN           3.3240    -2.3660    -0.0780 hn         1 L8H       0.450000
     15 HAA          3.1000     2.1530     0.9310 h1         1 L8H       0.041700
     16 HAAA         3.1220     2.1350    -0.8530 h1         1 L8H       0.041700
     17 HAAB         2.6470     3.6070     0.0180 h1         1 L8H       0.041700
     18 HAF         -4.3230    -0.5410    -0.0210 ha         1 L8H       0.109000
     19 HAG         -3.6440     1.8570    -0.0380 ha         1 L8H       0.112000
     20 HAH         -2.5910    -2.3220     0.0190 ha         1 L8H       0.111000
     21 HAI         -1.2500     2.4790    -0.0170 ha         1 L8H       0.122000
     22 HAJ          2.8720    -0.0550     0.0590 ha         1 L8H       0.115000
     23 HAK         -0.2510    -2.9920     0.0540 ha         1 L8H       0.114000
     24 H11          2.0660    -3.5680    -0.0790 hn         1 L8H       0.450000
@<TRIPOS>BOND
     1     1    10 1   
     2     1    14 1   
     3     1    24 1   
     4     2     9 1   
     5     2    15 1   
     6     2    16 1   
     7     2    17 1   
     8     3     4 ar  
     9     3     5 ar  
    10     3    18 1   
    11     4     6 ar  
    12     4    19 1   
    13     5    12 ar  
    14     5    20 1   
    15     6    13 ar  
    16     6    21 1   
    17     7    10 ar  
    18     7    11 ar  
    19     7    22 1   
    20     8    10 ar  
    21     8    12 ar  
    22     8    23 1   
    23     9    11 1   
    24    11    13 ar  
    25    12    13 ar  
@<TRIPOS>SUBSTRUCTURE
     1 L8H         1 TEMP              0 ****  ****    0 ROOT
