@<TRIPOS>MOLECULE
L8I
   50    55     1     0     0
SMALL
abcg2


@<TRIPOS>ATOM
      1 F1          -5.3180    -0.4140     1.5310 f          1 L8I      -0.164000
      2 C2          -5.1490     0.5980     0.6690 ca         1 L8I       0.209000
      3 C3          -3.9890     0.6540    -0.0950 cp         1 L8I      -0.184500
      4 C4          -3.8390     1.7530    -0.9420 ca         1 L8I      -0.074000
      5 C6          -4.8110     2.7380    -1.0280 ca         1 L8I      -0.134000
      6 C8          -5.9610     2.6420    -0.2550 ca         1 L8I      -0.076000
      7 C10         -6.1310     1.5660     0.6050 ca         1 L8I      -0.162000
      8 C12         -2.9470    -0.3940    -0.0230 cp         1 L8I       0.406500
      9 N13         -3.3460    -1.6620    -0.0640 nb         1 L8I      -0.651000
     10 C14         -2.4180    -2.6110    -0.0170 ca         1 L8I       0.345900
     11 C16         -1.0570    -2.3750     0.0700 ca         1 L8I      -0.118300
     12 C17         -0.6380    -1.0350     0.0970 ca         1 L8I       0.038000
     13 C18         -1.6050    -0.0360     0.0560 ca         1 L8I      -0.156000
     14 C20          0.7850    -0.8130     0.1360 cc         1 L8I      -0.161000
     15 N21          1.4480     0.3740     0.3440 na         1 L8I      -0.058000
     16 C23          2.7710     0.1670     0.2370 cc         1 L8I      -0.101300
     17 C24          2.9810    -1.1650    -0.0710 cd         1 L8I      -0.227600
     18 C25          1.7140    -1.7930    -0.1290 cd         1 L8I      -0.044300
     19 C26          1.2870    -3.1830    -0.4640 c6         1 L8I      -0.005100
     20 C29         -0.0510    -3.4850     0.2150 c6         1 L8I      -0.028100
     21 C32          4.3170    -1.6740    -0.3650 c          1 L8I       0.605600
     22 N33          5.3060    -0.7690    -0.1510 ns         1 L8I      -0.507900
     23 C35          5.1370     0.4180     0.6680 c6         1 L8I       0.131000
     24 C38          3.8570     1.1690     0.3470 cy         1 L8I      -0.030700
     25 C39          3.5330     2.3850     1.2340 cy         1 L8I       0.150800
     26 N42          3.0370     3.0740     0.0440 nq         1 L8I      -0.724600
     27 C43          3.8300     2.1950    -0.8140 cy         1 L8I       0.150800
     28 C46          3.2340     4.4950    -0.0590 c3         1 L8I       0.149100
     29 O50          4.5300    -2.7940    -0.8160 o          1 L8I      -0.562000
     30 H4          -2.9500     1.8230    -1.5560 ha         1 L8I       0.117000
     31 H6          -4.6740     3.5730    -1.7010 ha         1 L8I       0.118000
     32 H8          -6.7270     3.4020    -0.3170 ha         1 L8I       0.117000
     33 H10         -7.0130     1.4810     1.2260 ha         1 L8I       0.133000
     34 H14         -2.7810    -3.6340    -0.0490 h4         1 L8I       0.021100
     35 H18         -1.3300     1.0110     0.0850 ha         1 L8I       0.118000
     36 HN21         1.0260     1.2680     0.5450 hn         1 L8I       0.365000
     37 H26          1.1920    -3.2880    -1.5500 hc         1 L8I       0.067700
     38 H26A         2.0340    -3.9120    -0.1500 hc         1 L8I       0.067700
     39 H29          0.1300    -3.6350     1.2860 hc         1 L8I       0.054700
     40 H29A        -0.4660    -4.4200    -0.1620 hc         1 L8I       0.054700
     41 HN33         6.2490    -1.1050    -0.2730 hn         1 L8I       0.314500
     42 H35          5.1220     0.1540     1.7330 h1         1 L8I       0.045700
     43 H35A         5.9970     1.0660     0.5100 h1         1 L8I       0.045700
     44 H39          2.8170     2.2560     2.0490 h1         1 L8I       0.057950
     45 H39A         4.4550     2.8250     1.6410 h1         1 L8I       0.057950
     46 H43          4.8390     2.5800    -1.0210 h1         1 L8I       0.057950
     47 H43A         3.3620     1.8970    -1.7540 h1         1 L8I       0.057950
     48 H46          4.2850     4.7960     0.0690 h1         1 L8I       0.036700
     49 H46A         2.9000     4.8470    -1.0360 h1         1 L8I       0.036700
     50 H46B         2.6420     5.0090     0.7000 h1         1 L8I       0.036700
@<TRIPOS>BOND
     1     1     2 1   
     2     2     3 ar  
     3     2     7 ar  
     4     3     4 ar  
     5     3     8 1   
     6     4     5 ar  
     7     4    30 1   
     8     5     6 ar  
     9     5    31 1   
    10     6     7 ar  
    11     6    32 1   
    12     7    33 1   
    13     8     9 ar  
    14     8    13 ar  
    15     9    10 ar  
    16    10    11 ar  
    17    10    34 1   
    18    11    12 ar  
    19    11    20 1   
    20    12    13 ar  
    21    12    14 1   
    22    13    35 1   
    23    14    15 1   
    24    14    18 2   
    25    15    16 1   
    26    15    36 1   
    27    16    17 2   
    28    16    24 1   
    29    17    18 1   
    30    17    21 1   
    31    18    19 1   
    32    19    20 1   
    33    19    37 1   
    34    19    38 1   
    35    20    39 1   
    36    20    40 1   
    37    21    22 1   
    38    21    29 2   
    39    22    23 1   
    40    22    41 1   
    41    23    24 1   
    42    23    42 1   
    43    23    43 1   
    44    24    25 1   
    45    24    27 1   
    46    25    26 1   
    47    25    44 1   
    48    25    45 1   
    49    26    27 1   
    50    26    28 1   
    51    27    46 1   
    52    27    47 1   
    53    28    48 1   
    54    28    49 1   
    55    28    50 1   
@<TRIPOS>SUBSTRUCTURE
     1 L8I         1 TEMP              0 ****  ****    0 ROOT
