@<TRIPOS>MOLECULE
L8I
   50    55     1     0     0
SMALL
No Charge or Current Charge


@<TRIPOS>ATOM
      1 F1          -5.5770    -0.5840     1.4730 f          1 L8I      -0.164000
      2 C2          -5.3470     0.4880     0.6820 ca         1 L8I       0.209000
      3 C3          -4.1280     0.6210    -0.0380 cp         1 L8I      -0.184500
      4 C4          -3.9430     1.8020    -0.8060 ca         1 L8I      -0.074000
      5 C6          -4.9340     2.7960    -0.8630 ca         1 L8I      -0.134000
      6 C8          -6.1320     2.6400    -0.1490 ca         1 L8I      -0.076000
      7 C10         -6.3340     1.4860     0.6240 ca         1 L8I      -0.162000
      8 C12         -3.0530    -0.4210     0.0010 cp         1 L8I       0.406500
      9 N13         -3.4360    -1.7140    -0.0860 nb         1 L8I      -0.651000
     10 C14         -2.4880    -2.6790    -0.0830 ca         1 L8I       0.345900
     11 C16         -1.1110    -2.4030    -0.0060 ca         1 L8I      -0.118300
     12 C17         -0.7000    -1.0600     0.0810 ca         1 L8I       0.038000
     13 C18         -1.6870    -0.0620     0.0810 ca         1 L8I      -0.156000
     14 C20          0.7230    -0.7530     0.1560 cc         1 L8I      -0.161000
     15 N21          1.3910     0.4450     0.3930 na         1 L8I      -0.058000
     16 C23          2.7650     0.2190     0.3040 cc         1 L8I      -0.101300
     17 C24          2.9350    -1.1010    -0.0190 cd         1 L8I      -0.227600
     18 C25          1.6580    -1.7080    -0.1160 cd         1 L8I      -0.044300
     19 C26          1.3210    -3.1320    -0.5020 c6         1 L8I      -0.005100
     20 C29         -0.0760    -3.5400     0.0410 c6         1 L8I      -0.028100
     21 C32          4.2840    -1.6570    -0.2730 c          1 L8I       0.605600
     22 N33          5.3140    -0.7910     0.0280 ns         1 L8I      -0.507900
     23 C35          5.2250     0.4270     0.8730 c6         1 L8I       0.131000
     24 C38          3.9290     1.1650     0.4030 cy         1 L8I      -0.030700
     25 C39          3.7660     2.5110     1.2050 cy         1 L8I       0.150800
     26 N42          3.2790     3.0690    -0.0910 nq         1 L8I      -0.724600
     27 C43          4.2180     2.1440    -0.7950 cy         1 L8I       0.150800
     28 C46          3.2810     4.5120    -0.3450 c3         1 L8I       0.149100
     29 O50          4.5050    -2.7710    -0.7200 o          1 L8I      -0.562000
     30 H4          -3.0270     1.9410    -1.3770 ha         1 L8I       0.117000
     31 H6          -4.7730     3.6900    -1.4630 ha         1 L8I       0.118000
     32 H8          -6.8980     3.4110    -0.1920 ha         1 L8I       0.117000
     33 H10         -7.2560     1.3640     1.1870 ha         1 L8I       0.133000
     34 H14         -2.8470    -3.7060    -0.1400 h4         1 L8I       0.021100
     35 H18         -1.4090     0.9850     0.1470 ha         1 L8I       0.118000
     36 HN21         0.9610     1.3470     0.5700 hn         1 L8I       0.365000
     37 H26          1.3240    -3.2200    -1.5970 hc         1 L8I       0.067700
     38 H26A         2.0790    -3.8360    -0.1330 hc         1 L8I       0.067700
     39 H29          0.0320    -3.8620     1.0860 hc         1 L8I       0.054700
     40 H29A        -0.4430    -4.4170    -0.5100 hc         1 L8I       0.054700
     41 HN33         6.2390    -1.1400    -0.1900 hn         1 L8I       0.314500
     42 H35          5.1320     0.1320     1.9280 h1         1 L8I       0.045700
     43 H35A         6.1190     1.0520     0.7400 h1         1 L8I       0.045700
     44 H39          3.0360     2.4770     2.0220 h1         1 L8I       0.057950
     45 H39A         4.7120     2.9380     1.5650 h1         1 L8I       0.057950
     46 H43          5.2580     2.4940    -0.8530 h1         1 L8I       0.057950
     47 H43A         3.8900     1.7780    -1.7750 h1         1 L8I       0.057950
     48 H46          4.2880     4.9210    -0.1890 h1         1 L8I       0.036700
     49 H46A         2.9700     4.7060    -1.3810 h1         1 L8I       0.036700
     50 H46B         2.5800     5.0100     0.3380 h1         1 L8I       0.036700
@<TRIPOS>BOND
     1     1     2 1   
     2     2     3 ar  
     3     2     7 ar  
     4     3     4 ar  
     5     3     8 1   
     6     4     5 ar  
     7     4    30 1   
     8     5     6 ar  
     9     5    31 1   
    10     6     7 ar  
    11     6    32 1   
    12     7    33 1   
    13     8     9 ar  
    14     8    13 ar  
    15     9    10 ar  
    16    10    11 ar  
    17    10    34 1   
    18    11    12 ar  
    19    11    20 1   
    20    12    13 ar  
    21    12    14 1   
    22    13    35 1   
    23    14    15 1   
    24    14    18 2   
    25    15    16 1   
    26    15    36 1   
    27    16    17 2   
    28    16    24 1   
    29    17    18 1   
    30    17    21 1   
    31    18    19 1   
    32    19    20 1   
    33    19    37 1   
    34    19    38 1   
    35    20    39 1   
    36    20    40 1   
    37    21    22 1   
    38    21    29 2   
    39    22    23 1   
    40    22    41 1   
    41    23    24 1   
    42    23    42 1   
    43    23    43 1   
    44    24    25 1   
    45    24    27 1   
    46    25    26 1   
    47    25    44 1   
    48    25    45 1   
    49    26    27 1   
    50    26    28 1   
    51    27    46 1   
    52    27    47 1   
    53    28    48 1   
    54    28    49 1   
    55    28    50 1   
@<TRIPOS>SUBSTRUCTURE
     1 L8I         1 TEMP              0 ****  ****    0 ROOT
