@<TRIPOS>MOLECULE
L8J
   24    25     1     0     0
SMALL
abcg2


@<TRIPOS>ATOM
      1 C02          2.7910     0.2280     0.3610 ca         1 L8J       0.001100
      2 C03          2.0890    -0.9310     0.0450 ca         1 L8J      -0.137000
      3 C04          0.7420    -0.8420    -0.2530 ca         1 L8J       0.048100
      4 C06          2.1850     1.4570     0.3110 ca         1 L8J      -0.160000
      5 C07          0.8240     1.5270    -0.0010 ca         1 L8J       0.080600
      6 C08          0.0260     0.3760    -0.2070 ca         1 L8J      -0.034800
      7 C09         -1.4160     0.5870    -0.3450 cc         1 L8J       0.098600
      8 C10         -2.4280    -0.5140    -0.2200 c3         1 L8J      -0.362200
      9 C15         -1.8630     1.8560    -0.5170 cd         1 L8J      -0.309200
     10 C16         -1.0270     3.0280    -0.4580 c          1 L8J       0.565200
     11 N18          0.2710     2.7700    -0.1110 ns         1 L8J      -0.385100
     12 O12         -4.7810    -1.4730     0.5630 o          1 L8J      -0.916167
     13 O13         -3.8450     0.5430     1.8580 o          1 L8J      -0.916167
     14 O14         -4.7970     0.8570    -0.5110 o          1 L8J      -0.916167
     15 O17         -1.4150     4.1780    -0.6350 o          1 L8J      -0.598000
     16 P11         -4.1230    -0.0900     0.4950 p5         1 L8J       1.281500
     17 BR01         4.6150     0.1020     0.8010 br         1 L8J      -0.159100
     18 BR05         0.0080    -2.4660    -0.8950 br         1 L8J      -0.089100
     19 H1           2.5990    -1.8840     0.0100 ha         1 L8J       0.122000
     20 H2           2.7350     2.3700     0.4980 ha         1 L8J       0.111000
     21 H3          -2.5850    -0.9800    -1.1980 hc         1 L8J       0.044700
     22 H4          -2.0330    -1.3000     0.4230 hc         1 L8J       0.044700
     23 H5          -2.9270     2.0190    -0.6410 ha         1 L8J       0.293000
     24 H6           0.8770     3.5700     0.0190 hn         1 L8J       0.292500
@<TRIPOS>BOND
     1     1     2 ar  
     2     1     4 ar  
     3     1    17 1   
     4     2     3 ar  
     5     2    19 1   
     6     3     6 ar  
     7     3    18 1   
     8     4     5 ar  
     9     4    20 1   
    10     5     6 ar  
    11     5    11 1   
    12     6     7 1   
    13     7     8 1   
    14     7     9 2   
    15     8    16 1   
    16     8    21 1   
    17     8    22 1   
    18     9    10 1   
    19     9    23 1   
    20    10    11 1   
    21    10    15 2   
    22    11    24 1   
    23    12    16 1   
    24    13    16 1   
    25    14    16 1   
@<TRIPOS>SUBSTRUCTURE
     1 L8J         1 TEMP              0 ****  ****    0 ROOT
