@<TRIPOS>MOLECULE
L8J
   24    25     1     0     0
SMALL
No Charge or Current Charge


@<TRIPOS>ATOM
      1 C02          2.9130     0.2230     0.1120 ca         1 L8J       0.001100
      2 C03          2.1390    -0.9340     0.0120 ca         1 L8J      -0.137000
      3 C04          0.7360    -0.8640    -0.0860 ca         1 L8J       0.048100
      4 C06          2.2910     1.4700     0.0980 ca         1 L8J      -0.160000
      5 C07          0.8950     1.5560     0.0010 ca         1 L8J       0.080600
      6 C08          0.0620     0.4060    -0.0710 ca         1 L8J      -0.034800
      7 C09         -1.4270     0.6060    -0.1360 cc         1 L8J       0.098600
      8 C10         -2.4510    -0.5080    -0.0810 c3         1 L8J      -0.362200
      9 C15         -1.8450     1.9280    -0.2250 cd         1 L8J      -0.309200
     10 C16         -0.9940     3.1160    -0.1900 c          1 L8J       0.565200
     11 N18          0.3240     2.8280    -0.0540 ns         1 L8J      -0.385100
     12 O12         -4.9270    -1.5340     0.2700 o          1 L8J      -0.916167
     13 O13         -4.4590     0.6040     1.3640 o          1 L8J      -0.916167
     14 O14         -4.7630     0.5090    -1.0640 o          1 L8J      -0.916167
     15 O17         -1.4100     4.2610    -0.2620 o          1 L8J      -0.598000
     16 P11         -4.2520    -0.2130     0.1350 p5         1 L8J       1.281500
     17 Br01         4.8160     0.1000     0.2390 br         1 L8J      -0.159100
     18 Br05        -0.0950    -2.5920    -0.2810 br         1 L8J      -0.089100
     19 H1           2.6320    -1.9030     0.0020 ha         1 L8J       0.122000
     20 H2           2.8930     2.3740     0.1540 ha         1 L8J       0.111000
     21 H3          -2.3940    -1.1040    -0.9980 hc         1 L8J       0.044700
     22 H4          -2.2260    -1.1580     0.7700 hc         1 L8J       0.044700
     23 H5          -2.8890     2.1960    -0.3000 ha         1 L8J       0.293000
     24 H6           0.9520     3.6200    -0.0160 hn         1 L8J       0.292500
@<TRIPOS>BOND
     1     1     2 ar  
     2     1     4 ar  
     3     1    17 1   
     4     2     3 ar  
     5     2    19 1   
     6     3     6 ar  
     7     3    18 1   
     8     4     5 ar  
     9     4    20 1   
    10     5     6 ar  
    11     5    11 1   
    12     6     7 1   
    13     7     8 1   
    14     7     9 2   
    15     8    16 1   
    16     8    21 1   
    17     8    22 1   
    18     9    10 1   
    19     9    23 1   
    20    10    11 1   
    21    10    15 2   
    22    11    24 1   
    23    12    16 1   
    24    13    16 1   
    25    14    16 1   
@<TRIPOS>SUBSTRUCTURE
     1 L8J         1 TEMP              0 ****  ****    0 ROOT
