@<TRIPOS>MOLECULE
L8K
   48    50     1     0     0
SMALL
abcg2


@<TRIPOS>ATOM
      1 C10         -5.6490    14.1460   -39.3640 ca         1 L8K      -0.189300
      2 N12         -7.9520    13.7100   -39.7880 nb         1 L8K      -0.162000
      3 C13         -7.5470    12.6770   -40.5130 ca         1 L8K       0.238300
      4 C15         -8.1610    10.3920   -42.0340 c3         1 L8K      -0.092400
      5 C20         -7.8050     6.7520   -40.6760 c3         1 L8K      -0.081767
      6 C21         -7.5250     7.6570   -42.9920 c3         1 L8K      -0.081767
      7 C24         -3.9350    12.7160   -40.3770 cc         1 L8K      -0.203500
      8 C01         -3.8110     7.7320   -41.4900 c3         1 L8K      -0.088100
      9 C02         -3.0910     9.0340   -41.1820 c3         1 L8K      -0.083400
     10 C04         -3.3880    11.5270   -40.8030 cd         1 L8K      -0.131300
     11 C06         -1.6920    13.3010   -40.3580 cd         1 L8K      -0.253000
     12 C07         -2.9540    13.7310   -40.1180 cc         1 L8K      -0.077300
     13 C08         -3.3700    15.0900   -39.6510 c6         1 L8K      -0.012100
     14 C09         -4.5670    14.9550   -38.7150 c6         1 L8K      -0.015100
     15 C11         -6.9940    14.4320   -39.2220 ca         1 L8K       0.118900
     16 C16         -8.0310     9.2130   -41.0830 c          1 L8K       0.583100
     17 C18         -8.2650     7.8240   -41.6600 c3         1 L8K      -0.141000
     18 C19         -9.7780     7.6800   -41.8920 c3         1 L8K      -0.081767
     19 C23         -5.3420    13.0340   -40.1620 ca         1 L8K       0.226500
     20 N22         -6.3020    12.3030   -40.7310 nb         1 L8K      -0.191000
     21 O17         -7.7680     9.3990   -39.9200 o          1 L8K      -0.497100
     22 S05         -1.6760    11.6700   -40.8890 ss         1 L8K       0.210000
     23 S14         -8.8990    11.8380   -41.2620 ss         1 L8K      -0.273300
     24 H1          -8.7790    10.1640   -42.9010 h1         1 L8K       0.100200
     25 H2          -7.1670    10.6460   -42.4130 h1         1 L8K       0.100200
     26 H3          -8.3420     6.8090   -39.7300 hc         1 L8K       0.041033
     27 H4          -7.9880     5.7650   -41.1020 hc         1 L8K       0.041033
     28 H5          -6.7380     6.8280   -40.4660 hc         1 L8K       0.041033
     29 H6          -6.4510     7.8090   -42.8760 hc         1 L8K       0.041033
     30 H7          -7.6780     6.6430   -43.3640 hc         1 L8K       0.041033
     31 H8          -7.8810     8.3410   -43.7620 hc         1 L8K       0.041033
     32 H9          -3.1150     6.8930   -41.5010 hc         1 L8K       0.034033
     33 H10         -4.5760     7.5190   -40.7430 hc         1 L8K       0.034033
     34 H11         -4.2970     7.7700   -42.4650 hc         1 L8K       0.034033
     35 H12         -2.5720     8.9460   -40.2240 hc         1 L8K       0.043700
     36 H13         -2.3210     9.2020   -41.9410 hc         1 L8K       0.043700
     37 H14         -4.5600    10.3160   -42.0990 hc         1 L8K       0.069200
     38 H15         -4.8310    10.0340   -40.4010 hc         1 L8K       0.069200
     39 H16         -0.7700    13.8510   -40.2490 h4         1 L8K       0.152000
     40 H17         -2.5450    15.5980   -39.1510 hc         1 L8K       0.056200
     41 H18         -4.9510    15.9380   -38.4360 hc         1 L8K       0.055700
     42 H19         -7.3140    15.2820   -38.6270 h4         1 L8K       0.023100
     43 H21        -10.3380     7.7830   -40.9610 hc         1 L8K       0.041033
     44 H22        -10.1660     8.4080   -42.6050 hc         1 L8K       0.041033
     45 H23         -9.9840     6.6870   -42.2960 hc         1 L8K       0.041033
     46 H25         -3.6520    15.7060   -40.5110 hc         1 L8K       0.056200
     47 H26         -4.2500    14.4640   -37.7890 hc         1 L8K       0.055700
     48 C03         -4.0460    10.2250   -41.1370 c3         1 L8K      -0.015100
@<TRIPOS>BOND
     1     1    14 1   
     2     1    15 ar  
     3     1    19 ar  
     4     2     3 ar  
     5     2    15 ar  
     6     3    20 ar  
     7     3    23 1   
     8     4    16 1   
     9     4    23 1   
    10     4    24 1   
    11     4    25 1   
    12     5    17 1   
    13     5    26 1   
    14     5    27 1   
    15     5    28 1   
    16     6    17 1   
    17     6    29 1   
    18     6    30 1   
    19     6    31 1   
    20     7    10 2   
    21     7    12 1   
    22     7    19 1   
    23     8     9 1   
    24     8    32 1   
    25     8    33 1   
    26     8    34 1   
    27     9    35 1   
    28     9    36 1   
    29     9    48 1   
    30    10    22 1   
    31    10    48 1   
    32    11    12 2   
    33    11    22 1   
    34    11    39 1   
    35    12    13 1   
    36    13    14 1   
    37    13    40 1   
    38    13    46 1   
    39    14    41 1   
    40    14    47 1   
    41    15    42 1   
    42    16    17 1   
    43    16    21 2   
    44    17    18 1   
    45    18    43 1   
    46    18    44 1   
    47    18    45 1   
    48    19    20 ar  
    49    37    48 1   
    50    38    48 1   
@<TRIPOS>SUBSTRUCTURE
     1 L8K         1 TEMP              0 ****  ****    0 ROOT
