@<TRIPOS>MOLECULE
L8K
   48    50     1     0     0
SMALL
No Charge or Current Charge


@<TRIPOS>ATOM
      1 C10         -5.7920    13.9920   -39.4130 ca         1 L8K      -0.189300
      2 N12         -8.0010    13.5220   -40.2310 nb         1 L8K      -0.162000
      3 C13         -7.4260    12.6230   -41.0550 ca         1 L8K       0.238300
      4 C15         -7.7120    10.0870   -42.4210 c3         1 L8K      -0.092400
      5 C20         -8.3810     7.0140   -39.9500 c3         1 L8K      -0.081767
      6 C21         -7.7120     6.9400   -42.3840 c3         1 L8K      -0.081767
      7 C24         -3.8230    12.8110   -40.3210 cc         1 L8K      -0.203500
      8 C01         -3.5610     8.1130   -42.4830 c3         1 L8K      -0.088100
      9 C02         -2.8490     9.3350   -41.8690 c3         1 L8K      -0.083400
     10 C04         -3.1980    11.7220   -40.9090 cd         1 L8K      -0.131300
     11 C06         -1.6100    13.3650   -39.8120 cd         1 L8K      -0.253000
     12 C07         -2.9250    13.7210   -39.7070 cc         1 L8K      -0.077300
     13 C08         -3.4480    14.9760   -39.0490 c6         1 L8K      -0.012100
     14 C09         -4.8610    14.7460   -38.4530 c6         1 L8K      -0.015100
     15 C11         -7.1810    14.2050   -39.4090 ca         1 L8K       0.118900
     16 C16         -7.7620     9.1880   -41.1670 c          1 L8K       0.583100
     17 C18         -8.4440     7.7840   -41.3020 c3         1 L8K      -0.141000
     18 C19         -9.9380     7.9620   -41.6990 c3         1 L8K      -0.081767
     19 C23         -5.2800    13.0210   -40.2990 ca         1 L8K       0.226500
     20 N22         -6.1060    12.3540   -41.1320 nb         1 L8K      -0.191000
     21 O17         -7.2780     9.5700   -40.1080 o          1 L8K      -0.497100
     22 S05         -1.4300    11.8500   -40.7080 ss         1 L8K       0.210000
     23 S14         -8.5220    11.7460   -42.1690 ss         1 L8K      -0.273300
     24 H1          -8.2230     9.5820   -43.2460 h1         1 L8K       0.100200
     25 H2          -6.6630    10.2130   -42.7110 h1         1 L8K       0.100200
     26 H3          -8.8980     7.5670   -39.1560 hc         1 L8K       0.041033
     27 H4          -8.8560     6.0290   -40.0360 hc         1 L8K       0.041033
     28 H5          -7.3420     6.8580   -39.6340 hc         1 L8K       0.041033
     29 H6          -6.6480     6.8310   -42.1390 hc         1 L8K       0.041033
     30 H7          -8.1440     5.9340   -42.4520 hc         1 L8K       0.041033
     31 H8          -7.7840     7.3950   -43.3790 hc         1 L8K       0.041033
     32 H9          -2.8410     7.3090   -42.6760 hc         1 L8K       0.034033
     33 H10         -4.3280     7.7290   -41.7990 hc         1 L8K       0.034033
     34 H11         -4.0420     8.3780   -43.4320 hc         1 L8K       0.034033
     35 H12         -2.3710     9.0280   -40.9310 hc         1 L8K       0.043700
     36 H13         -2.0540     9.6590   -42.5520 hc         1 L8K       0.043700
     37 H14         -4.2560    10.8260   -42.5500 hc         1 L8K       0.069200
     38 H15         -4.6320    10.1300   -40.9770 hc         1 L8K       0.069200
     39 H16         -0.7370    13.8890   -39.4420 h4         1 L8K       0.152000
     40 H17         -2.7670    15.3240   -38.2600 hc         1 L8K       0.056200
     41 H18         -5.3020    15.7110   -38.1690 hc         1 L8K       0.055700
     42 H19         -7.6470    14.9260   -38.7390 h4         1 L8K       0.023100
     43 H21        -10.4620     8.5910   -40.9690 hc         1 L8K       0.041033
     44 H22        -10.0470     8.4270   -42.6850 hc         1 L8K       0.041033
     45 H23        -10.4490     6.9920   -41.7360 hc         1 L8K       0.041033
     46 H25         -3.4980    15.7860   -39.7890 hc         1 L8K       0.056200
     47 H26         -4.7690    14.1650   -37.5250 hc         1 L8K       0.055700
     48 C03         -3.8130    10.5140   -41.5970 c3         1 L8K      -0.015100
@<TRIPOS>BOND
     1     1    14 1   
     2     1    15 ar  
     3     1    19 ar  
     4     2     3 ar  
     5     2    15 ar  
     6     3    20 ar  
     7     3    23 1   
     8     4    16 1   
     9     4    23 1   
    10     4    24 1   
    11     4    25 1   
    12     5    17 1   
    13     5    26 1   
    14     5    27 1   
    15     5    28 1   
    16     6    17 1   
    17     6    29 1   
    18     6    30 1   
    19     6    31 1   
    20     7    10 2   
    21     7    12 1   
    22     7    19 1   
    23     8     9 1   
    24     8    32 1   
    25     8    33 1   
    26     8    34 1   
    27     9    35 1   
    28     9    36 1   
    29     9    48 1   
    30    10    22 1   
    31    10    48 1   
    32    11    12 2   
    33    11    22 1   
    34    11    39 1   
    35    12    13 1   
    36    13    14 1   
    37    13    40 1   
    38    13    46 1   
    39    14    41 1   
    40    14    47 1   
    41    15    42 1   
    42    16    17 1   
    43    16    21 2   
    44    17    18 1   
    45    18    43 1   
    46    18    44 1   
    47    18    45 1   
    48    19    20 ar  
    49    37    48 1   
    50    38    48 1   
@<TRIPOS>SUBSTRUCTURE
     1 L8K         1 TEMP              0 ****  ****    0 ROOT
