@<TRIPOS>MOLECULE
L8L
   79    84     1     0     0
SMALL
abcg2


@<TRIPOS>ATOM
      1 C1         -14.9280     9.6210    20.1750 c6         1 L8L       0.160800
      2 C3         -14.1170     8.6750    18.1230 c6         1 L8L       0.160800
      3 C41         -7.7730     0.2750    17.1210 c3         1 L8L      -0.093100
      4 C11        -12.6110     3.2930    19.3980 ca         1 L8L      -0.098800
      5 C12        -12.9860     4.3490    20.2580 ca         1 L8L      -0.040200
      6 C13        -11.3200     2.7690    19.4780 ca         1 L8L      -0.048000
      7 C14        -10.4220     3.3010    20.3920 ca         1 L8L      -0.075800
      8 C15        -10.8250     4.3490    21.2450 ca         1 L8L      -0.087000
      9 C16        -12.0980     4.8800    21.1930 ca         1 L8L      -0.122000
     10 C17        -13.8320     1.9310    17.5350 c3         1 L8L      -0.014900
     11 C18         -8.2700     2.7020    19.3340 cc         1 L8L      -0.016400
     12 C19         -9.0390     2.7910    20.4510 cd         1 L8L      -0.087400
     13 C20         -8.4200     2.3430    21.6460 cd         1 L8L      -0.098800
     14 C21         -7.1220     1.8570    21.6560 cc         1 L8L      -0.230600
     15 C22         -6.3340     1.7760    20.4490 c          1 L8L       0.589600
     16 C25         -7.6790     1.5890    23.8760 cd         1 L8L      -0.328600
     17 C26         -6.7040     1.4300    22.9410 cc         1 L8L      -0.022000
     18 C28         -6.3570     0.7510    17.4100 c3         1 L8L      -0.096400
     19 C30         -7.7250     1.2800    25.3180 c          1 L8L       0.646700
     20 N2         -15.0010     9.6570    18.7260 n7         1 L8L      -0.863400
     21 C4         -14.5290     7.2720    18.5440 c6         1 L8L      -0.072900
     22 C5         -14.5240     7.1460    20.0650 c6         1 L8L      -0.086700
     23 C6         -15.3720     8.2570    20.6820 c6         1 L8L      -0.072900
     24 C7         -15.0150     5.7840    20.5490 c3         1 L8L       0.081600
     25 N8         -14.2830     4.6710    19.9850 na         1 L8L      -0.083700
     26 C9         -14.7260     3.8540    18.9760 cc         1 L8L      -0.154100
     27 C10        -13.7480     2.9850    18.5850 cd         1 L8L      -0.136400
     28 N23         -6.9920     2.2250    19.3150 n          1 L8L      -0.277000
     29 S24         -9.1280     2.2710    23.2080 ss         1 L8L       0.342000
     30 O29         -5.1880     1.3500    20.4010 o          1 L8L      -0.555000
     31 N31         -6.6270     0.7200    25.8520 ns         1 L8L      -0.489900
     32 O32         -8.7360     1.5410    25.9570 o          1 L8L      -0.609100
     33 C33         -6.5720     0.2450    27.2180 c6         1 L8L       0.102700
     34 C34         -7.1290    -1.1800    27.3080 c6         1 L8L      -0.076900
     35 C35         -7.1500    -1.7200    28.7320 c6         1 L8L      -0.294400
     36 S36         -5.4990    -1.7690    29.4160 s6         1 L8L       1.077000
     37 C37         -4.9920    -0.0690    29.1800 c6         1 L8L      -0.294400
     38 C38         -5.1310     0.3480    27.7230 c6         1 L8L      -0.076900
     39 O39         -5.5670    -2.0700    30.8450 o          1 L8L      -0.516500
     40 O40         -4.6660    -2.6210    28.5650 o          1 L8L      -0.516500
     41 H1         -13.9120     9.8240    20.5520 h1         1 L8L       0.031200
     42 H2         -15.5780    10.3990    20.5820 h1         1 L8L       0.031200
     43 H3         -14.1710     8.7700    17.0370 h1         1 L8L       0.031200
     44 H4         -13.0620     8.8300    18.4060 h1         1 L8L       0.031200
     45 H5          -7.7580    -0.6930    16.6200 hc         1 L8L       0.035367
     46 H6          -8.3580     0.1560    18.0340 hc         1 L8L       0.035367
     47 H7          -8.3040     0.9750    16.4730 hc         1 L8L       0.035367
     48 H8         -11.0170     1.9490    18.8370 ha         1 L8L       0.114000
     49 H9         -10.1110     4.7740    21.9410 ha         1 L8L       0.116000
     50 H10        -12.3810     5.6910    21.8520 ha         1 L8L       0.117000
     51 H11        -13.0990     2.0940    16.7420 hc         1 L8L       0.037367
     52 H12        -13.6400     0.9370    17.9450 hc         1 L8L       0.037367
     53 H13        -14.8180     1.9110    17.0720 hc         1 L8L       0.037367
     54 H14         -8.6520     3.0310    18.3770 h4         1 L8L       0.204000
     55 H15         -5.7200     1.0240    23.1340 ha         1 L8L       0.144000
     56 H16         -5.2580     2.4430    18.1830 h1         1 L8L       0.061700
     57 H17         -6.7490     2.8710    17.3660 h1         1 L8L       0.061700
     58 H18         -5.8400     0.0350    18.0510 hc         1 L8L       0.057700
     59 H19         -5.7860     0.7950    16.4790 hc         1 L8L       0.057700
     60 H20        -14.7530    10.5810    18.3980 hn         1 L8L       0.412000
     61 H22        -15.5310     7.0560    18.1600 hc         1 L8L       0.049950
     62 H23        -13.8470     6.5470    18.0920 hc         1 L8L       0.049950
     63 H24        -13.4910     7.2850    20.4090 hc         1 L8L       0.055700
     64 H25        -15.3030     8.2270    21.7720 hc         1 L8L       0.049950
     65 H26        -16.4240     8.1010    20.4200 hc         1 L8L       0.049950
     66 H27        -14.9550     5.7330    21.6390 h1         1 L8L       0.059200
     67 H28        -16.0650     5.6520    20.2810 h1         1 L8L       0.059200
     68 H29        -15.7360     3.9540    18.6050 h4         1 L8L       0.212000
     69 H30         -5.8720     0.4400    25.2450 hn         1 L8L       0.320500
     70 H31         -7.1960     0.9040    27.8260 h1         1 L8L       0.083700
     71 H32         -8.1550    -1.1900    26.9350 hc         1 L8L       0.069200
     72 H33         -6.5500    -1.8450    26.6630 hc         1 L8L       0.069200
     73 H34         -7.7480    -1.0910    29.3950 h1         1 L8L       0.105950
     74 H35         -7.5370    -2.7390    28.7780 h1         1 L8L       0.105950
     75 H36         -3.9570    -0.0040    29.5240 h1         1 L8L       0.105950
     76 H37         -5.6130     0.5420    29.8380 h1         1 L8L       0.105950
     77 H38         -4.4680    -0.2580    27.1000 hc         1 L8L       0.069200
     78 H39         -4.7920     1.3810    27.6360 hc         1 L8L       0.069200
     79 C27         -6.2920     2.1390    18.0320 c3         1 L8L       0.092000
@<TRIPOS>BOND
     1     1    20 1   
     2     1    23 1   
     3     1    41 1   
     4     1    42 1   
     5     2    20 1   
     6     2    21 1   
     7     2    43 1   
     8     2    44 1   
     9     3    18 1   
    10     3    45 1   
    11     3    46 1   
    12     3    47 1   
    13     4     5 ar  
    14     4     6 ar  
    15     4    27 1   
    16     5     9 ar  
    17     5    25 1   
    18     6     7 ar  
    19     6    48 1   
    20     7     8 ar  
    21     7    12 1   
    22     8     9 ar  
    23     8    49 1   
    24     9    50 1   
    25    10    27 1   
    26    10    51 1   
    27    10    52 1   
    28    10    53 1   
    29    11    12 2   
    30    11    28 1   
    31    11    54 1   
    32    12    13 1   
    33    13    14 2   
    34    13    29 1   
    35    14    15 1   
    36    14    17 1   
    37    15    28 1   
    38    15    30 2   
    39    16    17 2   
    40    16    19 1   
    41    16    29 1   
    42    17    55 1   
    43    18    58 1   
    44    18    59 1   
    45    18    79 1   
    46    19    31 1   
    47    19    32 2   
    48    20    60 1   
    49    21    22 1   
    50    21    61 1   
    51    21    62 1   
    52    22    23 1   
    53    22    24 1   
    54    22    63 1   
    55    23    64 1   
    56    23    65 1   
    57    24    25 1   
    58    24    66 1   
    59    24    67 1   
    60    25    26 1   
    61    26    27 2   
    62    26    68 1   
    63    28    79 1   
    64    31    33 1   
    65    31    69 1   
    66    33    34 1   
    67    33    38 1   
    68    33    70 1   
    69    34    35 1   
    70    34    71 1   
    71    34    72 1   
    72    35    36 1   
    73    35    73 1   
    74    35    74 1   
    75    36    37 1   
    76    36    39 2   
    77    36    40 2   
    78    37    38 1   
    79    37    75 1   
    80    37    76 1   
    81    38    77 1   
    82    38    78 1   
    83    56    79 1   
    84    57    79 1   
@<TRIPOS>SUBSTRUCTURE
     1 L8L         1 TEMP              0 ****  ****    0 ROOT
