@<TRIPOS>MOLECULE
L8L
   79    84     1     0     0
SMALL
No Charge or Current Charge


@<TRIPOS>ATOM
      1 C1         -15.2250     9.5570    20.7930 c6         1 L8L       0.160800
      2 C3         -14.4630     9.2060    18.4720 c6         1 L8L       0.160800
      3 C41         -7.9740    -0.0670    17.0200 c3         1 L8L      -0.093100
      4 C11        -12.4310     3.5050    18.8940 ca         1 L8L      -0.098800
      5 C12        -12.9830     4.3360    19.8250 ca         1 L8L      -0.040200
      6 C13        -11.1660     2.9290    19.0600 ca         1 L8L      -0.048000
      7 C14        -10.4400     3.2110    20.2470 ca         1 L8L      -0.075800
      8 C15        -11.0180     4.0950    21.2020 ca         1 L8L      -0.087000
      9 C16        -12.2950     4.6610    21.0010 ca         1 L8L      -0.122000
     10 C17        -13.2070     2.5710    16.5740 c3         1 L8L      -0.014900
     11 C18         -8.3000     2.3120    19.3530 cc         1 L8L      -0.016400
     12 C19         -9.0930     2.6230    20.4500 cd         1 L8L      -0.087400
     13 C20         -8.5730     2.1900    21.7330 cd         1 L8L      -0.098800
     14 C21         -7.3430     1.5920    21.8320 cc         1 L8L      -0.230600
     15 C22         -6.4700     1.3320    20.6720 c          1 L8L       0.589600
     16 C25         -7.9830     1.5320    24.0840 cd         1 L8L      -0.328600
     17 C26         -7.0020     1.2330    23.1630 cc         1 L8L      -0.022000
     18 C28         -6.5250     0.1180    17.5210 c3         1 L8L      -0.096400
     19 C30         -7.9280     1.3040    25.5400 c          1 L8L       0.646700
     20 N2         -15.3260     9.9980    19.3810 n7         1 L8L      -0.863400
     21 C4         -14.7960     7.6950    18.5520 c6         1 L8L      -0.072900
     22 C5         -14.7030     7.1730    20.0140 c6         1 L8L      -0.086700
     23 C6         -15.5830     8.0570    20.9400 c6         1 L8L      -0.072900
     24 C7         -15.0880     5.6690    20.1350 c3         1 L8L       0.081600
     25 N8         -14.2310     4.7430    19.3720 na         1 L8L      -0.083700
     26 C9         -14.5130     4.1620    18.1210 cc         1 L8L      -0.154100
     27 C10        -13.3940     3.3930    17.8220 cd         1 L8L      -0.136400
     28 N23         -7.0370     1.7080    19.4350 n          1 L8L      -0.277000
     29 S24         -9.4010     2.2530    23.3070 ss         1 L8L       0.342000
     30 O29         -5.3640     0.8150    20.7730 o          1 L8L      -0.555000
     31 N31         -6.7550     0.7380    25.9790 ns         1 L8L      -0.489900
     32 O32         -8.8410     1.5920    26.2980 o          1 L8L      -0.609100
     33 C33         -6.4430     0.3870    27.3690 c6         1 L8L       0.102700
     34 C34         -7.0630    -0.9930    27.7230 c6         1 L8L      -0.076900
     35 C35         -6.8220    -1.3970    29.2060 c6         1 L8L      -0.294400
     36 S36         -5.0640    -1.5350    29.6370 s6         1 L8L       1.077000
     37 C37         -4.4920     0.0820    29.0400 c6         1 L8L      -0.294400
     38 C38         -4.9030     0.3740    27.5690 c6         1 L8L      -0.076900
     39 O39         -4.9330    -1.5770    31.0990 o          1 L8L      -0.516500
     40 O40         -4.4550    -2.5870    28.8140 o          1 L8L      -0.516500
     41 H1         -14.2000     9.7260    21.1570 h1         1 L8L       0.031200
     42 H2         -15.9030    10.1600    21.4150 h1         1 L8L       0.031200
     43 H3         -14.5970     9.5580    17.4390 h1         1 L8L       0.031200
     44 H4         -13.4080     9.3620    18.7420 h1         1 L8L       0.031200
     45 H5          -8.0720    -1.0190    16.4850 hc         1 L8L       0.035367
     46 H6          -8.6810    -0.0770    17.8580 hc         1 L8L       0.035367
     47 H7          -8.2550     0.7420    16.3340 hc         1 L8L       0.035367
     48 H8         -10.7790     2.2560    18.3000 ha         1 L8L       0.114000
     49 H9         -10.4620     4.3930    22.0840 ha         1 L8L       0.116000
     50 H10        -12.7200     5.3390    21.7370 ha         1 L8L       0.117000
     51 H11        -12.3250     2.9040    16.0140 hc         1 L8L       0.037367
     52 H12        -13.0700     1.5110    16.8200 hc         1 L8L       0.037367
     53 H13        -14.0760     2.6510    15.9090 hc         1 L8L       0.037367
     54 H14         -8.5650     2.5440    18.3270 h4         1 L8L       0.204000
     55 H15         -6.0490     0.7630    23.3950 ha         1 L8L       0.144000
     56 H16         -5.1760     1.5540    18.4260 h1         1 L8L       0.061700
     57 H17         -6.4660     2.2840    17.4840 h1         1 L8L       0.061700
     58 H18         -6.2800    -0.6890    18.2210 hc         1 L8L       0.057700
     59 H19         -5.8440     0.0110    16.6680 hc         1 L8L       0.057700
     60 H20        -15.0480    10.9870    19.3230 hn         1 L8L       0.412000
     61 H22        -15.8050     7.5220    18.1550 hc         1 L8L       0.049950
     62 H23        -14.1050     7.1400    17.9030 hc         1 L8L       0.049950
     63 H24        -13.6590     7.2580    20.3480 hc         1 L8L       0.055700
     64 H25        -15.4550     7.7520    21.9870 hc         1 L8L       0.049950
     65 H26        -16.6450     7.9110    20.6990 hc         1 L8L       0.049950
     66 H27        -15.0560     5.3760    21.1920 h1         1 L8L       0.059200
     67 H28        -16.1230     5.5410    19.7950 h1         1 L8L       0.059200
     68 H29        -15.4330     4.3380    17.5740 h4         1 L8L       0.212000
     69 H30         -6.0630     0.5420    25.2700 hn         1 L8L       0.320500
     70 H31         -6.8790     1.1570    28.0250 h1         1 L8L       0.083700
     71 H32         -8.1450    -0.9640    27.5350 hc         1 L8L       0.069200
     72 H33         -6.6600    -1.7670    27.0530 hc         1 L8L       0.069200
     73 H34         -7.2420    -0.6500    29.8920 h1         1 L8L       0.105950
     74 H35         -7.2630    -2.3760    29.4300 h1         1 L8L       0.105950
     75 H36         -3.4010     0.0740    29.1560 h1         1 L8L       0.105950
     76 H37         -4.9200     0.8240    29.7260 h1         1 L8L       0.105950
     77 H38         -4.4430    -0.3660    26.8980 hc         1 L8L       0.069200
     78 H39         -4.4920     1.3500    27.2720 hc         1 L8L       0.069200
     79 C27         -6.2470     1.4800    18.1980 c3         1 L8L       0.092000
@<TRIPOS>BOND
     1     1    20 1   
     2     1    23 1   
     3     1    41 1   
     4     1    42 1   
     5     2    20 1   
     6     2    21 1   
     7     2    43 1   
     8     2    44 1   
     9     3    18 1   
    10     3    45 1   
    11     3    46 1   
    12     3    47 1   
    13     4     5 ar  
    14     4     6 ar  
    15     4    27 1   
    16     5     9 ar  
    17     5    25 1   
    18     6     7 ar  
    19     6    48 1   
    20     7     8 ar  
    21     7    12 1   
    22     8     9 ar  
    23     8    49 1   
    24     9    50 1   
    25    10    27 1   
    26    10    51 1   
    27    10    52 1   
    28    10    53 1   
    29    11    12 2   
    30    11    28 1   
    31    11    54 1   
    32    12    13 1   
    33    13    14 2   
    34    13    29 1   
    35    14    15 1   
    36    14    17 1   
    37    15    28 1   
    38    15    30 2   
    39    16    17 2   
    40    16    19 1   
    41    16    29 1   
    42    17    55 1   
    43    18    58 1   
    44    18    59 1   
    45    18    79 1   
    46    19    31 1   
    47    19    32 2   
    48    20    60 1   
    49    21    22 1   
    50    21    61 1   
    51    21    62 1   
    52    22    23 1   
    53    22    24 1   
    54    22    63 1   
    55    23    64 1   
    56    23    65 1   
    57    24    25 1   
    58    24    66 1   
    59    24    67 1   
    60    25    26 1   
    61    26    27 2   
    62    26    68 1   
    63    28    79 1   
    64    31    33 1   
    65    31    69 1   
    66    33    34 1   
    67    33    38 1   
    68    33    70 1   
    69    34    35 1   
    70    34    71 1   
    71    34    72 1   
    72    35    36 1   
    73    35    73 1   
    74    35    74 1   
    75    36    37 1   
    76    36    39 2   
    77    36    40 2   
    78    37    38 1   
    79    37    75 1   
    80    37    76 1   
    81    38    77 1   
    82    38    78 1   
    83    56    79 1   
    84    57    79 1   
@<TRIPOS>SUBSTRUCTURE
     1 L8L         1 TEMP              0 ****  ****    0 ROOT
