@<TRIPOS>MOLECULE
L8M
   54    57     1     0     0
SMALL
No Charge or Current Charge


@<TRIPOS>ATOM
      1 C20         -2.9690    -1.0390     0.2740 ca         1 L8M       0.069000
      2 C25         -4.2670    -1.5710     0.4500 ca         1 L8M       0.163000
      3 C21         -1.8900    -1.9250     0.0310 ca         1 L8M      -0.202000
      4 C17          0.2740     4.1550     0.5940 c6         1 L8M       0.142800
      5 C13         -2.4380     3.1150     0.0880 c6         1 L8M       0.238500
      6 C24         -4.4930    -2.9540     0.3870 ca         1 L8M      -0.122000
      7 C14         -2.8300     3.2720    -1.4080 c3         1 L8M      -0.104100
      8 C11         -1.4920     0.7410     0.1530 ca         1 L8M       0.437900
      9 N16         -0.8410     5.1060     0.3430 n7         1 L8M      -0.858400
     10 N12         -1.2870     2.1470     0.2150 nh         1 L8M      -0.768300
     11 C01          4.7080     1.2110     0.5420 c3         1 L8M      -0.086767
     12 C03          5.8290     0.0860    -1.4160 c3         1 L8M      -0.086767
     13 C04          6.0590    -0.8870     0.9100 c3         1 L8M      -0.086767
     14 C05          3.8720    -1.0150    -0.3050 cc         1 L8M      -0.122300
     15 C06          2.5470    -0.7790    -0.0570 cd         1 L8M      -0.218000
     16 C07          1.8400    -1.9160    -0.4770 cd         1 L8M       0.501900
     17 C09         -0.6070    -1.3530    -0.1370 ca         1 L8M       0.445900
     18 C15         -2.1390     4.5050     0.7590 c6         1 L8M       0.146800
     19 C18          0.0620     2.7580    -0.0800 c6         1 L8M       0.224800
     20 C22         -2.1240    -3.3210    -0.0280 ca         1 L8M      -0.071000
     21 C23         -3.4210    -3.8290     0.1490 ca         1 L8M      -0.125000
     22 F26         -5.3170    -0.7470     0.6820 f          1 L8M      -0.162000
     23 N08          0.5090    -2.1380    -0.4100 nu         1 L8M      -0.884800
     24 N10         -0.4160    -0.0290    -0.0800 nb         1 L8M      -0.317000
     25 N19         -2.7490     0.2910     0.3340 nb         1 L8M      -0.276000
     26 N27          2.5940    -2.8670    -0.9540 nc         1 L8M      -0.583800
     27 N28          3.8630    -2.3040    -0.8550 na         1 L8M       0.006800
     28 H1           1.2180     4.5910     0.2350 h1         1 L8M       0.036700
     29 H2           0.3780     4.0060     1.6790 h1         1 L8M       0.036700
     30 H3          -3.3240     2.7230     0.6100 h1         1 L8M       0.088700
     31 H4          -5.4980    -3.3450     0.5250 ha         1 L8M       0.131000
     32 H5          -2.0100     3.6990    -1.9980 hc         1 L8M       0.043700
     33 H6          -3.0960     2.3060    -1.8530 hc         1 L8M       0.043700
     34 H7          -3.6970     3.9340    -1.5170 hc         1 L8M       0.043700
     35 H8          -0.6790     5.9650     0.8850 hn         1 L8M       0.412000
     36 H10          4.0330     1.7590    -0.1270 hc         1 L8M       0.040144
     37 H11          4.2000     1.0790     1.5060 hc         1 L8M       0.040144
     38 H12          5.5930     1.8360     0.7120 hc         1 L8M       0.040144
     39 H13          6.7120     0.7220    -1.2770 hc         1 L8M       0.040144
     40 H14          6.1630    -0.8570    -1.8640 hc         1 L8M       0.040144
     41 H15          5.1620     0.5830    -2.1310 hc         1 L8M       0.040144
     42 H16          5.5570    -1.0870     1.8650 hc         1 L8M       0.040144
     43 H17          6.3950    -1.8460     0.4970 hc         1 L8M       0.040144
     44 H18          6.9490    -0.2790     1.1160 hc         1 L8M       0.040144
     45 H19          2.1270     0.1100     0.3900 ha         1 L8M       0.163000
     46 H20         -2.9570     5.2040     0.5350 h1         1 L8M       0.039200
     47 H21         -2.1280     4.3650     1.8500 h1         1 L8M       0.039200
     48 H22          0.1870     2.8690    -1.1670 h1         1 L8M       0.061200
     49 H23          0.8770     2.1100     0.2710 h1         1 L8M       0.061200
     50 H24         -1.3160    -4.0250    -0.2050 ha         1 L8M       0.108000
     51 H25         -3.5950    -4.9020     0.1020 ha         1 L8M       0.119000
     52 H26          0.2960    -3.0950    -0.6570 hn         1 L8M       0.516000
     53 H9           4.6880    -2.8190    -1.1620 hn         1 L8M       0.373000
     54 C02          5.1040    -0.1590    -0.0690 c3         1 L8M       0.018300
@<TRIPOS>BOND
     1     1     2 ar  
     2     1     3 ar  
     3     1    25 ar  
     4     2     6 ar  
     5     2    22 1   
     6     3    17 ar  
     7     3    20 ar  
     8     4     9 1   
     9     4    19 1   
    10     4    28 1   
    11     4    29 1   
    12     5     7 1   
    13     5    10 1   
    14     5    18 1   
    15     5    30 1   
    16     6    21 ar  
    17     6    31 1   
    18     7    32 1   
    19     7    33 1   
    20     7    34 1   
    21     8    10 1   
    22     8    24 ar  
    23     8    25 ar  
    24     9    18 1   
    25     9    35 1   
    26    10    19 1   
    27    11    36 1   
    28    11    37 1   
    29    11    38 1   
    30    11    54 1   
    31    12    39 1   
    32    12    40 1   
    33    12    41 1   
    34    12    54 1   
    35    13    42 1   
    36    13    43 1   
    37    13    44 1   
    38    13    54 1   
    39    14    15 2   
    40    14    27 1   
    41    14    54 1   
    42    15    16 1   
    43    15    45 1   
    44    16    23 1   
    45    16    26 2   
    46    17    23 1   
    47    17    24 ar  
    48    18    46 1   
    49    18    47 1   
    50    19    48 1   
    51    19    49 1   
    52    20    21 ar  
    53    20    50 1   
    54    21    51 1   
    55    23    52 1   
    56    26    27 1   
    57    27    53 1   
@<TRIPOS>SUBSTRUCTURE
     1 L8M         1 TEMP              0 ****  ****    0 ROOT
