@<TRIPOS>MOLECULE
L8M
   54    57     1     0     0
SMALL
bcc


@<TRIPOS>ATOM
      1 C20         -2.9540    -0.9620     0.1530 ca         1 L8M       0.462600
      2 C25         -4.2770    -1.4390     0.2780 ca         1 L8M       0.062600
      3 C21         -1.9310    -1.9300     0.1060 ca         1 L8M      -0.332600
      4 C17          0.4290     3.8430     0.2340 c6         1 L8M       0.142800
      5 C13         -2.3090     3.0410    -0.1310 c6         1 L8M       0.238500
      6 C24         -4.5770    -2.7680     0.3500 ca         1 L8M      -0.140000
      7 C14         -2.7790     3.3280    -1.5540 c3         1 L8M      -0.104100
      8 C11         -1.4790     0.7440    -0.0410 ca         1 L8M       0.963900
      9 N16         -0.6330     4.8160     0.0720 n7         1 L8M      -0.803200
     10 N12         -1.2160     2.0720    -0.1080 nh         1 L8M      -0.768300
     11 C01          5.0190     0.5990     1.4650 c3         1 L8M      -0.086767
     12 C03          4.9480     0.9950    -1.0050 c3         1 L8M      -0.086767
     13 C04          6.3120    -0.8790    -0.0820 c3         1 L8M      -0.086767
     14 C05          3.8090    -0.9630    -0.0230 cc         1 L8M      -0.071600
     15 C06          2.4710    -0.6610     0.1520 cd         1 L8M      -0.301300
     16 C07          1.8030    -1.8690    -0.1120 cd         1 L8M       0.567200
     17 C09         -0.6060    -1.3720    -0.0160 ca         1 L8M       0.774200
     18 C15         -1.8690     4.2950     0.6190 c6         1 L8M       0.146800
     19 C18          0.0770     2.5830    -0.5310 c6         1 L8M       0.224800
     20 C22         -2.2360    -3.3000     0.1820 ca         1 L8M      -0.089000
     21 C23         -3.5390    -3.7130     0.3010 ca         1 L8M      -0.143000
     22 F26         -5.2590    -0.5300     0.3250 f          1 L8M      -0.126900
     23 N08          0.4560    -2.2030    -0.0510 nu         1 L8M      -0.829600
     24 N10         -0.4080    -0.0820    -0.0870 nb         1 L8M      -0.843000
     25 N19         -2.7350     0.3640     0.0780 nb         1 L8M      -0.802000
     26 N27          2.6480    -2.8360    -0.4200 nc         1 L8M      -0.583800
     27 N28          3.8490    -2.2610    -0.3570 na         1 L8M       0.006400
     28 H1           1.3610     4.2480    -0.1650 h1         1 L8M       0.036700
     29 H2           0.6090     3.5800     1.2890 h1         1 L8M       0.036700
     30 H3          -3.1390     2.6080     0.4250 h1         1 L8M       0.088700
     31 H4          -5.6080    -3.0850     0.4460 ha         1 L8M       0.149000
     32 H5          -1.9930     3.7750    -2.1620 hc         1 L8M       0.043700
     33 H6          -3.1090     2.4090    -2.0390 hc         1 L8M       0.043700
     34 H7          -3.6240     4.0180    -1.5410 hc         1 L8M       0.043700
     35 H8          -0.3860     5.6750     0.5440 hn         1 L8M       0.356800
     36 H10          4.1240     1.2060     1.6140 hc         1 L8M       0.040144
     37 H11          5.0660    -0.1360     2.2700 hc         1 L8M       0.040144
     38 H12          5.8830     1.2600     1.5600 hc         1 L8M       0.040144
     39 H13          5.8140     1.6550    -0.9390 hc         1 L8M       0.040144
     40 H14          4.9400     0.5460    -2.0000 hc         1 L8M       0.040144
     41 H15          4.0510     1.6090    -0.9060 hc         1 L8M       0.040144
     42 H16          6.4220    -1.6490     0.6850 hc         1 L8M       0.040144
     43 H17          6.3690    -1.3580    -1.0620 hc         1 L8M       0.040144
     44 H18          7.1710    -0.2130    -0.0020 hc         1 L8M       0.040144
     45 H19          2.0500     0.2840     0.4380 ha         1 L8M       0.181000
     46 H20         -2.6520     5.0500     0.5300 h1         1 L8M       0.039200
     47 H21         -1.7810     4.0430     1.6880 h1         1 L8M       0.039200
     48 H22          0.0650     2.8040    -1.6050 h1         1 L8M       0.061200
     49 H23          0.8340     1.8220    -0.3700 h1         1 L8M       0.061200
     50 H24         -1.4600    -4.0540     0.1530 ha         1 L8M       0.126000
     51 H25         -3.7750    -4.7660     0.3610 ha         1 L8M       0.137000
     52 H26          0.2820    -3.1950    -0.0790 hn         1 L8M       0.460800
     53 H9           4.6650    -2.8140    -0.5650 hn         1 L8M       0.322700
     54 C02          5.0210    -0.0770     0.0890 c3         1 L8M       0.018300
@<TRIPOS>BOND
     1     1     2 ar  
     2     1     3 ar  
     3     1    25 ar  
     4     2     6 ar  
     5     2    22 1   
     6     3    17 ar  
     7     3    20 ar  
     8     4     9 1   
     9     4    19 1   
    10     4    28 1   
    11     4    29 1   
    12     5     7 1   
    13     5    10 1   
    14     5    18 1   
    15     5    30 1   
    16     6    21 ar  
    17     6    31 1   
    18     7    32 1   
    19     7    33 1   
    20     7    34 1   
    21     8    10 1   
    22     8    24 ar  
    23     8    25 ar  
    24     9    18 1   
    25     9    35 1   
    26    10    19 1   
    27    11    36 1   
    28    11    37 1   
    29    11    38 1   
    30    11    54 1   
    31    12    39 1   
    32    12    40 1   
    33    12    41 1   
    34    12    54 1   
    35    13    42 1   
    36    13    43 1   
    37    13    44 1   
    38    13    54 1   
    39    14    15 2   
    40    14    27 1   
    41    14    54 1   
    42    15    16 1   
    43    15    45 1   
    44    16    23 1   
    45    16    26 2   
    46    17    23 1   
    47    17    24 ar  
    48    18    46 1   
    49    18    47 1   
    50    19    48 1   
    51    19    49 1   
    52    20    21 ar  
    53    20    50 1   
    54    21    51 1   
    55    23    52 1   
    56    26    27 1   
    57    27    53 1   
@<TRIPOS>SUBSTRUCTURE
     1 L8M         1 TEMP              0 ****  ****    0 ROOT
