@<TRIPOS>MOLECULE
L8O
   39    41     1     0     0
SMALL
abcg2


@<TRIPOS>ATOM
      1 C4          10.1190     0.1730    23.5590 ca         1 L8O      -0.105000
      2 C5          10.0870    -1.0910    22.9760 ca         1 L8O      -0.080300
      3 C6          11.2760    -1.6370    22.4890 ca         1 L8O      -0.105000
      4 C7           8.7830    -1.8470    22.8810 c6         1 L8O       0.018900
      5 C8           8.4460    -2.1570    21.4120 c6         1 L8O       0.117000
      6 C10          7.6000    -3.9390    23.4440 ca         1 L8O      -0.097300
      7 C13          9.5110    -4.7320    25.3050 ca         1 L8O      -0.108000
      8 C15          8.7150    -3.1290    23.6830 ca         1 L8O      -0.073300
      9 C17          7.1400    -2.2990    18.9050 c3         1 L8O      -0.172100
     10 N            7.1510    -2.8340    21.2910 n          1 L8O      -0.417800
     11 C1          12.4850    -0.9490    22.5690 ca         1 L8O      -0.077300
     12 C11          7.4550    -5.1440    24.1240 ca         1 L8O      -0.096000
     13 C2          12.4920     0.3180    23.1590 ca         1 L8O      -0.107000
     14 C16          6.4730    -2.8960    20.1220 c          1 L8O       0.598100
     15 C9           6.5550    -3.4540    22.4810 c6         1 L8O       0.144300
     16 C12          8.4080    -5.5420    25.0570 ca         1 L8O      -0.109000
     17 C14          9.6650    -3.5320    24.6160 ca         1 L8O      -0.097000
     18 C           13.7510    -1.5470    22.0160 c3         1 L8O      -0.047800
     19 O            5.3540    -3.4180    20.0430 o          1 L8O      -0.615100
     20 C3          11.3180     0.8750    23.6490 ca         1 L8O      -0.106000
     21 H1           9.2050     0.6080    23.9460 ha         1 L8O       0.114000
     22 H2          11.2680    -2.6280    22.0500 ha         1 L8O       0.115000
     23 H3           7.9930    -1.1850    23.2530 hc         1 L8O       0.069700
     24 H4           9.2370    -2.7780    20.9850 h1         1 L8O       0.047700
     25 H5           8.4190    -1.2200    20.8580 h1         1 L8O       0.047700
     26 H6          10.2560    -5.0350    26.0300 ha         1 L8O       0.114000
     27 H7           6.5480    -2.5530    18.0300 hc         1 L8O       0.060700
     28 H8           7.1930    -1.2110    18.9930 hc         1 L8O       0.060700
     29 H9           8.1580    -2.6690    18.7780 hc         1 L8O       0.060700
     30 H10          6.5940    -5.7710    23.9240 ha         1 L8O       0.117000
     31 H11         13.4240     0.8660    23.2360 ha         1 L8O       0.113000
     32 H12          5.9050    -2.7240    22.9810 h1         1 L8O       0.066200
     33 H13          5.9210    -4.2730    22.1540 h1         1 L8O       0.066200
     34 H14          8.2900    -6.4800    25.5850 ha         1 L8O       0.115000
     35 H15         10.5300    -2.9100    24.8060 ha         1 L8O       0.122000
     36 H16         13.9460    -1.1770    21.0050 hc         1 L8O       0.044033
     37 H17         14.6130    -1.2840    22.6300 hc         1 L8O       0.044033
     38 H18         13.6820    -2.6340    21.9610 hc         1 L8O       0.044033
     39 H19         11.3360     1.8550    24.1090 ha         1 L8O       0.115000
@<TRIPOS>BOND
     1     1     2 ar  
     2     1    20 ar  
     3     1    21 1   
     4     2     3 ar  
     5     2     4 1   
     6     3    11 ar  
     7     3    22 1   
     8     4     5 1   
     9     4     8 1   
    10     4    23 1   
    11     5    10 1   
    12     5    24 1   
    13     5    25 1   
    14     6     8 ar  
    15     6    12 ar  
    16     6    15 1   
    17     7    16 ar  
    18     7    17 ar  
    19     7    26 1   
    20     8    17 ar  
    21     9    14 1   
    22     9    27 1   
    23     9    28 1   
    24     9    29 1   
    25    10    14 1   
    26    10    15 1   
    27    11    13 ar  
    28    11    18 1   
    29    12    16 ar  
    30    12    30 1   
    31    13    20 ar  
    32    13    31 1   
    33    14    19 2   
    34    15    32 1   
    35    15    33 1   
    36    16    34 1   
    37    17    35 1   
    38    18    36 1   
    39    18    37 1   
    40    18    38 1   
    41    20    39 1   
@<TRIPOS>SUBSTRUCTURE
     1 L8O         1 TEMP              0 ****  ****    0 ROOT
