@<TRIPOS>MOLECULE
L8O
   39    41     1     0     0
SMALL
No Charge or Current Charge


@<TRIPOS>ATOM
      1 C4          10.1850     0.1950    23.6510 ca         1 L8O      -0.105000
      2 C5          10.0880    -1.0580    23.0150 ca         1 L8O      -0.080300
      3 C6          11.2480    -1.6420    22.4640 ca         1 L8O      -0.105000
      4 C7           8.7320    -1.7800    22.9330 c6         1 L8O       0.018900
      5 C8           8.3160    -2.0150    21.4530 c6         1 L8O       0.117000
      6 C10          7.6040    -3.9640    23.4540 ca         1 L8O      -0.097300
      7 C13          9.5150    -4.6560    25.3990 ca         1 L8O      -0.108000
      8 C15          8.6740    -3.0920    23.7220 ca         1 L8O      -0.073300
      9 C17          7.1160    -2.2720    18.7700 c3         1 L8O      -0.172100
     10 N            7.0770    -2.8270    21.2460 n          1 L8O      -0.417800
     11 C1          12.4900    -0.9840    22.5420 ca         1 L8O      -0.077300
     12 C11          7.4960    -5.1840    24.1490 ca         1 L8O      -0.096000
     13 C2          12.5720     0.2700    23.1740 ca         1 L8O      -0.107000
     14 C16          6.4930    -2.9920    19.9700 c          1 L8O       0.598100
     15 C9           6.5390    -3.5550    22.4330 c6         1 L8O       0.144300
     16 C12          8.4540    -5.5320    25.1160 ca         1 L8O      -0.109000
     17 C14          9.6240    -3.4360    24.7100 ca         1 L8O      -0.097000
     18 C           13.7330    -1.6250    21.9440 c3         1 L8O      -0.047800
     19 O            5.4990    -3.6890    19.8150 o          1 L8O      -0.615100
     20 C3          11.4220     0.8570    23.7290 ca         1 L8O      -0.106000
     21 H1           9.3040     0.6610    24.0870 ha         1 L8O       0.114000
     22 H2          11.1880    -2.6150    21.9810 ha         1 L8O       0.115000
     23 H3           7.9690    -1.1220    23.3700 hc         1 L8O       0.069700
     24 H4           9.1370    -2.5260    20.9310 h1         1 L8O       0.047700
     25 H5           8.1920    -1.0330    20.9760 h1         1 L8O       0.047700
     26 H6          10.2510    -4.9200    26.1550 ha         1 L8O       0.114000
     27 H7           6.6010    -2.5010    17.8310 hc         1 L8O       0.060700
     28 H8           7.1220    -1.1930    18.9620 hc         1 L8O       0.060700
     29 H9           8.1830    -2.5140    18.7110 hc         1 L8O       0.060700
     30 H10          6.6680    -5.8600    23.9460 ha         1 L8O       0.117000
     31 H11         13.5250     0.7900    23.2380 ha         1 L8O       0.113000
     32 H12          5.7980    -2.9150    22.9320 h1         1 L8O       0.066200
     33 H13          6.0100    -4.4610    22.1050 h1         1 L8O       0.066200
     34 H14          8.3690    -6.4750    25.6520 ha         1 L8O       0.115000
     35 H15         10.4460    -2.7670    24.9500 ha         1 L8O       0.122000
     36 H16         13.8240    -1.3790    20.8790 hc         1 L8O       0.044033
     37 H17         14.6450    -1.2800    22.4460 hc         1 L8O       0.044033
     38 H18         13.7020    -2.7170    22.0340 hc         1 L8O       0.044033
     39 H19         11.4900     1.8260    24.2190 ha         1 L8O       0.115000
@<TRIPOS>BOND
     1     1     2 ar  
     2     1    20 ar  
     3     1    21 1   
     4     2     3 ar  
     5     2     4 1   
     6     3    11 ar  
     7     3    22 1   
     8     4     5 1   
     9     4     8 1   
    10     4    23 1   
    11     5    10 1   
    12     5    24 1   
    13     5    25 1   
    14     6     8 ar  
    15     6    12 ar  
    16     6    15 1   
    17     7    16 ar  
    18     7    17 ar  
    19     7    26 1   
    20     8    17 ar  
    21     9    14 1   
    22     9    27 1   
    23     9    28 1   
    24     9    29 1   
    25    10    14 1   
    26    10    15 1   
    27    11    13 ar  
    28    11    18 1   
    29    12    16 ar  
    30    12    30 1   
    31    13    20 ar  
    32    13    31 1   
    33    14    19 2   
    34    15    32 1   
    35    15    33 1   
    36    16    34 1   
    37    17    35 1   
    38    18    36 1   
    39    18    37 1   
    40    18    38 1   
    41    20    39 1   
@<TRIPOS>SUBSTRUCTURE
     1 L8O         1 TEMP              0 ****  ****    0 ROOT
