@<TRIPOS>MOLECULE
L8P
   30    30     1     0     0
SMALL
No Charge or Current Charge


@<TRIPOS>ATOM
      1 P            1.9540     2.3710     0.2070 p5         1 L8P       1.287500
      2 N1          -1.1110    -1.4380     0.3880 n          1 L8P      -0.280000
      3 C2          -1.7870    -1.5250    -0.8510 c          1 L8P       0.750400
      4 O2          -1.3080    -2.0820    -1.8270 o          1 L8P      -0.603000
      5 N3          -3.0370    -0.9780    -0.9560 nc         1 L8P      -0.774100
      6 C4          -3.5770    -0.4020     0.0630 cd         1 L8P       0.815500
      7 N4          -4.7810     0.0950    -0.1480 nv         1 L8P      -1.056200
      8 C5          -2.9740    -0.2810     1.3290 cd         1 L8P      -0.476600
      9 C6          -1.7170    -0.8160     1.4740 cc         1 L8P       0.083600
     10 C1           0.2500    -2.0180     0.5250 c3         1 L8P       0.102000
     11 C7           1.3930    -0.9680     0.5330 c3         1 L8P       0.145300
     12 C3           2.7860    -1.6190     0.8290 c3         1 L8P       0.130600
     13 O3           3.1540    -2.6130    -0.1460 oh         1 L8P      -0.706000
     14 C8           2.2760     0.8730    -0.9020 c3         1 L8P      -0.173400
     15 O4           1.3900    -0.2780    -0.7510 os         1 L8P      -0.428000
     16 OP1          2.7760     3.5150    -0.2890 o          1 L8P      -0.929833
     17 OP2          0.5080     2.7350     0.1550 o          1 L8P      -0.929833
     18 H5          -3.4810     0.2100     2.1490 ha         1 L8P       0.179000
     19 H6          -1.1120    -0.8130     2.3780 h4         1 L8P       0.200000
     20 H1           0.2840    -2.5720     1.4720 h1         1 L8P       0.038200
     21 H3           3.5560    -0.8400     0.8830 h1         1 L8P       0.002200
     22 H4           2.1960     1.2480    -1.9300 h1         1 L8P       0.004200
     23 H1'A         0.4340    -2.7520    -0.2690 h1         1 L8P       0.038200
     24 H2           1.1800    -0.2630     1.3460 h1         1 L8P       0.110700
     25 H3'A         2.7420    -2.0840     1.8230 h1         1 L8P       0.002200
     26 H4'A         3.3230     0.5780    -0.7600 h1         1 L8P       0.004200
     27 HN4         -5.0070     0.1970    -1.1280 hn         1 L8P       0.470000
     28 HN4A        -5.0560     0.8570     0.4570 hn         1 L8P       0.470000
     29 O6           2.3470     2.0480     1.6110 o          1 L8P      -0.929833
     30 H12          4.0720    -2.8960     0.0670 ho         1 L8P       0.456000
@<TRIPOS>BOND
     1     1    14 1   
     2     1    16 1   
     3     1    17 1   
     4     1    29 1   
     5     2     3 1   
     6     2     9 1   
     7     2    10 1   
     8     3     4 2   
     9     3     5 1   
    10     5     6 2   
    11     6     7 1   
    12     6     8 1   
    13     7    27 1   
    14     7    28 1   
    15     8     9 2   
    16     8    18 1   
    17     9    19 1   
    18    10    11 1   
    19    10    20 1   
    20    10    23 1   
    21    11    12 1   
    22    11    15 1   
    23    11    24 1   
    24    12    13 1   
    25    12    21 1   
    26    12    25 1   
    27    13    30 1   
    28    14    15 1   
    29    14    22 1   
    30    14    26 1   
@<TRIPOS>SUBSTRUCTURE
     1 L8P         1 TEMP              0 ****  ****    0 ROOT
