@<TRIPOS>MOLECULE
L8P
   30    30     1     0     0
SMALL
abcg2


@<TRIPOS>ATOM
      1 P            0.7050     2.0240     0.1120 p5         1 L8P       1.287500
      2 N1          -0.8460    -1.3640     0.3730 n          1 L8P      -0.280000
      3 C2          -1.4970    -1.3510    -0.8640 c          1 L8P       0.750400
      4 O2          -1.0410    -2.0020    -1.8000 o          1 L8P      -0.603000
      5 N3          -2.6480    -0.6560    -0.9710 nc         1 L8P      -0.774100
      6 C4          -3.1090     0.0410     0.0450 cd         1 L8P       0.815500
      7 N4          -4.2470     0.7320    -0.1340 nv         1 L8P      -1.056200
      8 C5          -2.4830     0.0420     1.3180 cd         1 L8P      -0.476600
      9 C6          -1.3320    -0.6540     1.4110 cc         1 L8P       0.083600
     10 C1           0.4030    -2.0920     0.5380 c3         1 L8P       0.102000
     11 C7           1.6100    -1.1620     0.5110 c3         1 L8P       0.145300
     12 C3           2.9050    -1.9170     0.7560 c3         1 L8P       0.130600
     13 O3           3.0680    -2.9330    -0.2080 oh         1 L8P      -0.706000
     14 C8           1.9840     0.8810    -0.6370 c3         1 L8P      -0.173400
     15 O4           1.6240    -0.4930    -0.7230 os         1 L8P      -0.428000
     16 OP1          1.3710     3.3980    -0.0860 o          1 L8P      -0.929833
     17 OP2         -0.5660     1.8260    -0.7140 o          1 L8P      -0.929833
     18 H5          -2.8680     0.6080     2.1530 ha         1 L8P       0.179000
     19 H6          -0.7630    -0.6990     2.3270 h4         1 L8P       0.200000
     20 H1           0.3720    -2.6220     1.4940 h1         1 L8P       0.038200
     21 H3           3.7350    -1.1990     0.7280 h1         1 L8P       0.002200
     22 H4           2.1750     1.1930    -1.6710 h1         1 L8P       0.004200
     23 H1'A         0.4650    -2.8390    -0.2480 h1         1 L8P       0.038200
     24 H2           1.5020    -0.4410     1.3290 h1         1 L8P       0.110700
     25 H3'A         2.8800    -2.3250     1.7760 h1         1 L8P       0.002200
     26 H4'A         2.9470     0.9930    -0.1110 h1         1 L8P       0.004200
     27 HN4         -4.6240     0.8300    -1.0610 hn         1 L8P       0.470000
     28 HN4A        -4.5630     1.3840     0.5620 hn         1 L8P       0.470000
     29 O6           0.5890     1.6270     1.5930 o          1 L8P      -0.929833
     30 H12          3.9260    -3.3410    -0.0680 ho         1 L8P       0.456000
@<TRIPOS>BOND
     1     1    14 1   
     2     1    16 1   
     3     1    17 1   
     4     1    29 1   
     5     2     3 1   
     6     2     9 1   
     7     2    10 1   
     8     3     4 2   
     9     3     5 1   
    10     5     6 2   
    11     6     7 1   
    12     6     8 1   
    13     7    27 1   
    14     7    28 1   
    15     8     9 2   
    16     8    18 1   
    17     9    19 1   
    18    10    11 1   
    19    10    20 1   
    20    10    23 1   
    21    11    12 1   
    22    11    15 1   
    23    11    24 1   
    24    12    13 1   
    25    12    21 1   
    26    12    25 1   
    27    13    30 1   
    28    14    15 1   
    29    14    22 1   
    30    14    26 1   
@<TRIPOS>SUBSTRUCTURE
     1 L8P         1 TEMP              0 ****  ****    0 ROOT
