@<TRIPOS>MOLECULE
L8Q
   19    19     1     0     0
SMALL
No Charge or Current Charge


@<TRIPOS>ATOM
      1 C1          -0.6420   -14.4850   -16.3730 ca         1 L8Q       0.163100
      2 O1          -3.8490   -10.9820   -14.6730 o          1 L8Q      -0.404500
      3 C2          -2.0510   -14.4220   -16.3000 ca         1 L8Q      -0.196000
      4 O2          -1.9080   -10.0530   -14.3120 o          1 L8Q      -0.404500
      5 C3          -2.6870   -13.2900   -15.7630 ca         1 L8Q      -0.030000
      6 C4          -1.9270   -12.1970   -15.2890 ca         1 L8Q      -0.184200
      7 C5          -0.5130   -12.2600   -15.3630 ca         1 L8Q      -0.124000
      8 C6           0.1260   -13.3930   -15.9000 ca         1 L8Q       0.101100
      9 N           -2.6120   -10.9890   -14.7160 no         1 L8Q       0.700200
     10 C           -0.6860   -16.7380   -17.3990 c3         1 L8Q       0.141900
     11 O            0.0150   -15.5870   -16.8960 os         1 L8Q      -0.308100
     12 H1          -2.6710   -15.2410   -16.6530 ha         1 L8Q       0.133000
     13 H2          -3.7760   -13.2700   -15.7190 ha         1 L8Q       0.152000
     14 H3           1.8550   -12.5910   -15.5880 ho         1 L8Q       0.470000
     15 H4           0.0890   -11.4280   -15.0020 ha         1 L8Q       0.152000
     16 H5           0.0270   -17.4880   -17.7630 h1         1 L8Q       0.048700
     17 H6          -1.2920   -17.2020   -16.6100 h1         1 L8Q       0.048700
     18 H7          -1.3430   -16.4620   -18.2330 h1         1 L8Q       0.048700
     19 O3           1.4970   -13.4260   -15.9580 oh         1 L8Q      -0.508100
@<TRIPOS>BOND
     1     1     3 ar  
     2     1     8 ar  
     3     1    11 1   
     4     2     9 1   
     5     3     5 ar  
     6     3    12 1   
     7     4     9 1   
     8     5     6 ar  
     9     5    13 1   
    10     6     7 ar  
    11     6     9 1   
    12     7     8 ar  
    13     7    15 1   
    14     8    19 1   
    15    10    11 1   
    16    10    16 1   
    17    10    17 1   
    18    10    18 1   
    19    14    19 1   
@<TRIPOS>SUBSTRUCTURE
     1 L8Q         1 TEMP              0 ****  ****    0 ROOT
