@<TRIPOS>MOLECULE
L8Q
   19    19     1     0     0
SMALL
abcg2


@<TRIPOS>ATOM
      1 C1          -0.6770   -14.4770   -16.3620 ca         1 L8Q       0.163100
      2 O1          -3.7820   -11.0540   -14.7140 o          1 L8Q      -0.404500
      3 C2          -2.0630   -14.4130   -16.2890 ca         1 L8Q      -0.196000
      4 O2          -1.8740   -10.1660   -14.3690 o          1 L8Q      -0.404500
      5 C3          -2.6970   -13.2970   -15.7630 ca         1 L8Q      -0.030000
      6 C4          -1.9280   -12.2440   -15.3110 ca         1 L8Q      -0.184200
      7 C5          -0.5340   -12.2800   -15.3710 ca         1 L8Q      -0.124000
      8 C6           0.0940   -13.3890   -15.8930 ca         1 L8Q       0.101100
      9 N           -2.5730   -11.0740   -14.7600 no         1 L8Q       0.700200
     10 C           -0.6850   -16.6270   -17.3500 c3         1 L8Q       0.141900
     11 O            0.0190   -15.5020   -16.8510 os         1 L8Q      -0.308100
     12 H1          -2.6710   -15.2330   -16.6440 ha         1 L8Q       0.133000
     13 H2          -3.7760   -13.2720   -15.7170 ha         1 L8Q       0.152000
     14 H3           1.8640   -12.7240   -15.6510 ho         1 L8Q       0.470000
     15 H4           0.0580   -11.4480   -15.0140 ha         1 L8Q       0.152000
     16 H5           0.0690   -17.3260   -17.7010 h1         1 L8Q       0.048700
     17 H6          -1.2830   -17.1070   -16.5720 h1         1 L8Q       0.048700
     18 H7          -1.3350   -16.3570   -18.1860 h1         1 L8Q       0.048700
     19 O3           1.4260   -13.5120   -15.9920 oh         1 L8Q      -0.508100
@<TRIPOS>BOND
     1     1     3 ar  
     2     1     8 ar  
     3     1    11 1   
     4     2     9 1   
     5     3     5 ar  
     6     3    12 1   
     7     4     9 1   
     8     5     6 ar  
     9     5    13 1   
    10     6     7 ar  
    11     6     9 1   
    12     7     8 ar  
    13     7    15 1   
    14     8    19 1   
    15    10    11 1   
    16    10    16 1   
    17    10    17 1   
    18    10    18 1   
    19    14    19 1   
@<TRIPOS>SUBSTRUCTURE
     1 L8Q         1 TEMP              0 ****  ****    0 ROOT
