@<TRIPOS>MOLECULE
L8R
   48    50     1     0     0
SMALL
No Charge or Current Charge


@<TRIPOS>ATOM
      1 C10        -34.0230    25.1030   -31.7160 ca         1 L8R      -0.190300
      2 N12        -35.2830    24.0910   -29.9390 nb         1 L8R      -0.158000
      3 C13        -34.5280    22.9930   -30.1340 ca         1 L8R       0.240300
      4 C15        -33.0710    21.2360   -28.4310 c3         1 L8R      -0.089400
      5 C20        -30.5600    23.0380   -29.3790 c3         1 L8R      -0.082100
      6 C21        -30.1090    21.3140   -27.5700 c3         1 L8R      -0.082100
      7 C24        -32.2000    23.8080   -32.8500 cc         1 L8R      -0.187500
      8 C01        -31.6790    18.7100   -33.4570 c3         1 L8R      -0.091100
      9 C02        -31.2120    20.1300   -33.8310 c3         1 L8R      -0.077400
     10 C04        -31.5170    22.6540   -33.3620 cc         1 L8R      -0.036300
     11 C05        -30.4970    23.0060   -34.2170 cd         1 L8R      -0.263000
     12 C07        -31.6890    25.0000   -33.3130 cd         1 L8R      -0.195300
     13 C08        -32.1990    26.3720   -32.9260 c6         1 L8R      -0.004100
     14 C09        -33.7050    26.3130   -32.5910 c6         1 L8R      -0.012100
     15 C11        -35.0290    25.1470   -30.7340 ca         1 L8R       0.118900
     16 C16        -32.4040    22.4320   -27.7150 c          1 L8R       0.583100
     17 C18        -30.8620    22.6320   -27.9090 c3         1 L8R      -0.141000
     18 C19        -30.3360    23.7590   -26.9710 c3         1 L8R      -0.082100
     19 C23        -33.3080    23.8950   -31.8750 ca         1 L8R       0.225500
     20 N22        -33.5570    22.8520   -31.0580 nb         1 L8R      -0.195000
     21 O17        -33.0670    23.1780   -27.0030 o          1 L8R      -0.493100
     22 S06        -30.3350    24.7550   -34.4190 ss         1 L8R       0.231000
     23 S14        -34.7920    21.6130   -29.0320 ss         1 L8R      -0.273300
     24 H1         -33.1010    20.3990   -27.7230 h1         1 L8R       0.099700
     25 H2         -32.4550    20.9360   -29.2850 h1         1 L8R       0.099700
     26 H3         -29.4920    23.2500   -29.5150 hc         1 L8R       0.040700
     27 H4         -30.8260    22.2430   -30.0830 hc         1 L8R       0.040700
     28 H5         -31.1180    23.9410   -29.6580 hc         1 L8R       0.040700
     29 H6         -30.3400    20.9850   -26.5500 hc         1 L8R       0.040700
     30 H7         -30.3780    20.5030   -28.2580 hc         1 L8R       0.040700
     31 H8         -29.0230    21.4560   -27.6400 hc         1 L8R       0.040700
     32 H9         -31.1520    17.9630   -34.0620 hc         1 L8R       0.032033
     33 H10        -31.4760    18.5000   -32.4000 hc         1 L8R       0.032033
     34 H11        -32.7560    18.5960   -33.6330 hc         1 L8R       0.032033
     35 H12        -31.3990    20.2960   -34.8990 hc         1 L8R       0.040200
     36 H13        -31.7110    21.0510   -31.9480 hc         1 L8R       0.058700
     37 H14        -29.8220    22.3530   -34.7550 h4         1 L8R       0.152000
     38 H15        -31.6460    26.7350   -32.0490 hc         1 L8R       0.060200
     39 H16        -34.0140    27.2450   -32.0980 hc         1 L8R       0.055700
     40 H17        -35.6260    26.0420   -30.5690 h4         1 L8R       0.023100
     41 H18        -30.5270    23.5150   -25.9180 hc         1 L8R       0.040700
     42 H19        -29.2550    23.8990   -27.0910 hc         1 L8R       0.040700
     43 H20        -30.8240    24.7170   -27.1920 hc         1 L8R       0.040700
     44 H21        -30.1280    20.1960   -33.6760 hc         1 L8R       0.040200
     45 H22        -33.0000    21.1220   -33.1440 hc         1 L8R       0.058700
     46 H23        -32.0240    27.1010   -33.7280 hc         1 L8R       0.060200
     47 H24        -34.2830    26.2430   -33.5220 hc         1 L8R       0.055700
     48 C03        -31.9170    21.2340   -33.0090 c3         1 L8R      -0.014100
@<TRIPOS>BOND
     1     1    14 1   
     2     1    15 ar  
     3     1    19 ar  
     4     2     3 ar  
     5     2    15 ar  
     6     3    20 ar  
     7     3    23 1   
     8     4    16 1   
     9     4    23 1   
    10     4    24 1   
    11     4    25 1   
    12     5    17 1   
    13     5    26 1   
    14     5    27 1   
    15     5    28 1   
    16     6    17 1   
    17     6    29 1   
    18     6    30 1   
    19     6    31 1   
    20     7    10 1   
    21     7    12 2   
    22     7    19 1   
    23     8     9 1   
    24     8    32 1   
    25     8    33 1   
    26     8    34 1   
    27     9    35 1   
    28     9    44 1   
    29     9    48 1   
    30    10    11 2   
    31    10    48 1   
    32    11    22 1   
    33    11    37 1   
    34    12    13 1   
    35    12    22 1   
    36    13    14 1   
    37    13    38 1   
    38    13    46 1   
    39    14    39 1   
    40    14    47 1   
    41    15    40 1   
    42    16    17 1   
    43    16    21 2   
    44    17    18 1   
    45    18    41 1   
    46    18    42 1   
    47    18    43 1   
    48    19    20 ar  
    49    36    48 1   
    50    45    48 1   
@<TRIPOS>SUBSTRUCTURE
     1 L8R         1 TEMP              0 ****  ****    0 ROOT
