@<TRIPOS>MOLECULE
L8R
   48    50     1     0     0
SMALL
abcg2


@<TRIPOS>ATOM
      1 C10        -34.5840    25.3580   -31.9920 ca         1 L8R      -0.190300
      2 N12        -35.4700    24.4380   -29.9790 nb         1 L8R      -0.158000
      3 C13        -34.4810    23.5590   -30.0310 ca         1 L8R       0.240300
      4 C15        -32.9170    21.5900   -28.8400 c3         1 L8R      -0.089400
      5 C20        -30.1040    20.6780   -28.9400 c3         1 L8R      -0.082100
      6 C21        -30.8230    20.9310   -26.5530 c3         1 L8R      -0.082100
      7 C24        -32.5770    24.3510   -32.9950 cc         1 L8R      -0.187500
      8 C01        -30.7880    19.5610   -32.7450 c3         1 L8R      -0.091100
      9 C02        -30.7280    20.9260   -33.4170 c3         1 L8R      -0.077400
     10 C04        -31.6600    23.2990   -33.3480 cc         1 L8R      -0.036300
     11 C05        -30.8560    23.6870   -34.3760 cd         1 L8R      -0.263000
     12 C07        -32.4350    25.4750   -33.7700 cd         1 L8R      -0.195300
     13 C08        -33.2410    26.7200   -33.5950 c6         1 L8R      -0.004100
     14 C09        -34.6410    26.3360   -33.1260 c6         1 L8R      -0.012100
     15 C11        -35.5060    25.3280   -30.9660 ca         1 L8R       0.118900
     16 C16        -31.7840    22.4260   -28.2680 c          1 L8R       0.583100
     17 C18        -30.5160    21.6830   -27.8600 c3         1 L8R      -0.141000
     18 C19        -29.3760    22.6680   -27.6180 c3         1 L8R      -0.082100
     19 C23        -33.5870    24.3720   -31.9440 ca         1 L8R       0.225500
     20 N22        -33.5440    23.4800   -30.9570 nb         1 L8R      -0.195000
     21 O17        -31.9040    23.6190   -28.1390 o          1 L8R      -0.493100
     22 S06        -31.1870    25.2860   -34.9150 ss         1 L8R       0.231000
     23 S14        -34.5230    22.3880   -28.7200 ss         1 L8R      -0.273300
     24 H1         -33.0110    20.6330   -28.3250 h1         1 L8R       0.099700
     25 H2         -32.6970    21.3580   -29.8840 h1         1 L8R       0.099700
     26 H3         -29.1840    20.1770   -28.6340 hc         1 L8R       0.040700
     27 H4         -30.8550    19.9050   -29.1040 hc         1 L8R       0.040700
     28 H5         -29.9090    21.1720   -29.8940 hc         1 L8R       0.040700
     29 H6         -31.1230    21.6160   -25.7580 hc         1 L8R       0.040700
     30 H7         -31.6090    20.1860   -26.6770 hc         1 L8R       0.040700
     31 H8         -29.9250    20.4070   -26.2210 hc         1 L8R       0.040700
     32 H9         -30.1690    18.8330   -33.2690 hc         1 L8R       0.032033
     33 H10        -30.4360    19.6110   -31.7140 hc         1 L8R       0.032033
     34 H11        -31.8090    19.1760   -32.7270 hc         1 L8R       0.032033
     35 H12        -31.0430    20.8320   -34.4600 hc         1 L8R       0.040200
     36 H13        -31.2680    22.0550   -31.6700 hc         1 L8R       0.058700
     37 H14        -30.0860    23.1110   -34.8660 h4         1 L8R       0.152000
     38 H15        -32.7560    27.3680   -32.8580 hc         1 L8R       0.060200
     39 H16        -35.2000    27.2250   -32.8310 hc         1 L8R       0.055700
     40 H17        -36.3130    26.0540   -30.9320 h4         1 L8R       0.023100
     41 H18        -29.6100    23.3830   -26.8300 hc         1 L8R       0.040700
     42 H19        -28.4840    22.1200   -27.3130 hc         1 L8R       0.040700
     43 H20        -29.1280    23.2280   -28.5210 hc         1 L8R       0.040700
     44 H21        -29.6920    21.2750   -33.4370 hc         1 L8R       0.040200
     45 H22        -32.6260    21.5510   -32.6280 hc         1 L8R       0.058700
     46 H23        -33.2980    27.2880   -34.5240 hc         1 L8R       0.060200
     47 H24        -35.1860    25.8840   -33.9620 hc         1 L8R       0.055700
     48 C03        -31.6080    21.9450   -32.7040 c3         1 L8R      -0.014100
@<TRIPOS>BOND
     1     1    14 1   
     2     1    15 ar  
     3     1    19 ar  
     4     2     3 ar  
     5     2    15 ar  
     6     3    20 ar  
     7     3    23 1   
     8     4    16 1   
     9     4    23 1   
    10     4    24 1   
    11     4    25 1   
    12     5    17 1   
    13     5    26 1   
    14     5    27 1   
    15     5    28 1   
    16     6    17 1   
    17     6    29 1   
    18     6    30 1   
    19     6    31 1   
    20     7    10 1   
    21     7    12 2   
    22     7    19 1   
    23     8     9 1   
    24     8    32 1   
    25     8    33 1   
    26     8    34 1   
    27     9    35 1   
    28     9    44 1   
    29     9    48 1   
    30    10    11 2   
    31    10    48 1   
    32    11    22 1   
    33    11    37 1   
    34    12    13 1   
    35    12    22 1   
    36    13    14 1   
    37    13    38 1   
    38    13    46 1   
    39    14    39 1   
    40    14    47 1   
    41    15    40 1   
    42    16    17 1   
    43    16    21 2   
    44    17    18 1   
    45    18    41 1   
    46    18    42 1   
    47    18    43 1   
    48    19    20 ar  
    49    36    48 1   
    50    45    48 1   
@<TRIPOS>SUBSTRUCTURE
     1 L8R         1 TEMP              0 ****  ****    0 ROOT
