@<TRIPOS>MOLECULE
L8T
   45    47     1     0     0
SMALL
abcg2


@<TRIPOS>ATOM
      1 C1          -1.6060     5.6630    21.8050 c6         1 L8T      -0.072400
      2 C2          -1.8150     4.5620    20.7740 c6         1 L8T      -0.070400
      3 C3          -1.0210     4.8640    19.5070 c6         1 L8T       0.011900
      4 C4          -0.1500     5.7440    22.2600 c6         1 L8T      -0.009100
      5 S5           1.6090     5.3660    18.6740 ss         1 L8T       0.327000
      6 C6           2.7580     5.9330    19.8290 cc         1 L8T       0.033600
      7 C7           2.1960     6.0460    21.0910 cd         1 L8T      -0.289600
      8 C8           0.7950     5.6920    21.0930 cd         1 L8T      -0.017300
      9 C9           0.3620     5.3050    19.8680 cc         1 L8T      -0.305300
     10 C10          2.9060     6.4270    22.3150 c          1 L8T       0.645700
     11 O11          4.1500     6.8620    22.0990 os         1 L8T      -0.470100
     12 O12          2.4350     6.3580    23.4260 o          1 L8T      -0.524000
     13 C13          4.9330     7.2410    23.2440 c3         1 L8T       0.172600
     14 C14          6.2970     7.6690    22.7610 c3         1 L8T      -0.101100
     15 N15          4.0490     6.2090    19.4580 ns         1 L8T      -0.384100
     16 C16          4.5440     6.0620    18.1860 c          1 L8T       0.635300
     17 O17          3.8330     5.6250    17.2940 o          1 L8T      -0.547100
     18 C18          5.9970     6.2290    15.4270 c          1 L8T       0.725200
     19 O19          5.4550     7.1750    14.8320 o          1 L8T      -0.698500
     20 O20          6.2320     5.0800    15.0180 o          1 L8T      -0.698500
     21 C21          5.9350     6.4730    18.0060 ce         1 L8T      -0.298400
     22 C22          6.5310     6.5460    16.8040 cf         1 L8T      -0.012400
     23 C23          7.9250     7.0900    16.9400 c5         1 L8T      -0.065200
     24 C24          8.2200     6.9920    18.4420 c5         1 L8T      -0.081400
     25 C25          6.8420     6.9500    19.1170 c5         1 L8T      -0.027200
     26 H1          -1.9070     6.6220    21.3720 hc         1 L8T       0.033200
     27 H2          -2.2450     5.4990    22.6750 hc         1 L8T       0.033200
     28 H3          -1.4920     3.6040    21.1910 hc         1 L8T       0.033700
     29 H4          -2.8730     4.4600    20.5280 hc         1 L8T       0.033700
     30 H5          -0.9880     3.9840    18.8600 hc         1 L8T       0.042200
     31 H6          -1.5250     5.6470    18.9300 hc         1 L8T       0.042200
     32 H7          -0.0010     6.6600    22.8330 hc         1 L8T       0.055700
     33 H8           0.0680     4.9230    22.9500 hc         1 L8T       0.055700
     34 H9           4.4340     8.0570    23.7700 h1         1 L8T       0.042200
     35 H10          5.0130     6.3960    23.9300 h1         1 L8T       0.042200
     36 H11          6.8910     7.9850    23.6180 hc         1 L8T       0.045033
     37 H12          6.8260     6.8510    22.2730 hc         1 L8T       0.045033
     38 H13          6.2360     8.5080    22.0690 hc         1 L8T       0.045033
     39 H14          4.6430     6.5790    20.1860 hn         1 L8T       0.344500
     40 H16          8.6450     6.5450    16.3260 hc         1 L8T       0.060700
     41 H17          7.9390     8.1260    16.5840 hc         1 L8T       0.060700
     42 H18          8.7520     6.0620    18.6480 hc         1 L8T       0.028700
     43 H19          8.8410     7.8090    18.8060 hc         1 L8T       0.028700
     44 H20          6.5380     7.9410    19.4760 hc         1 L8T       0.025200
     45 H21          6.8440     6.2900    19.9880 hc         1 L8T       0.025200
@<TRIPOS>BOND
     1     1     2 1   
     2     1     4 1   
     3     1    26 1   
     4     1    27 1   
     5     2     3 1   
     6     2    28 1   
     7     2    29 1   
     8     3     9 1   
     9     3    30 1   
    10     3    31 1   
    11     4     8 1   
    12     4    32 1   
    13     4    33 1   
    14     5     6 1   
    15     5     9 1   
    16     6     7 2   
    17     6    15 1   
    18     7     8 1   
    19     7    10 1   
    20     8     9 2   
    21    10    11 1   
    22    10    12 2   
    23    11    13 1   
    24    13    14 1   
    25    13    34 1   
    26    13    35 1   
    27    14    36 1   
    28    14    37 1   
    29    14    38 1   
    30    15    16 1   
    31    15    39 1   
    32    16    17 2   
    33    16    21 1   
    34    18    19 1   
    35    18    20 1   
    36    18    22 1   
    37    21    22 2   
    38    21    25 1   
    39    22    23 1   
    40    23    24 1   
    41    23    40 1   
    42    23    41 1   
    43    24    25 1   
    44    24    42 1   
    45    24    43 1   
    46    25    44 1   
    47    25    45 1   
@<TRIPOS>SUBSTRUCTURE
     1 L8T         1 TEMP              0 ****  ****    0 ROOT
