@<TRIPOS>MOLECULE
L8T
   45    47     1     0     0
SMALL
No Charge or Current Charge


@<TRIPOS>ATOM
      1 C1          -1.6320     5.5400    22.0780 c6         1 L8T      -0.072400
      2 C2          -1.8860     4.4340    21.0330 c6         1 L8T      -0.070400
      3 C3          -1.2710     4.8280    19.6710 c6         1 L8T       0.011900
      4 C4          -0.1150     5.7530    22.3180 c6         1 L8T      -0.009100
      5 S5           1.2910     5.4270    18.5250 ss         1 L8T       0.327000
      6 C6           2.5580     6.0130    19.6150 cc         1 L8T       0.033600
      7 C7           2.0930     6.1290    20.9240 cd         1 L8T      -0.289600
      8 C8           0.7030     5.7400    21.0280 cd         1 L8T      -0.017300
      9 C9           0.1500     5.3160    19.8430 cc         1 L8T      -0.305300
     10 C10          2.9290     6.5870    22.0930 c          1 L8T       0.645700
     11 O11          4.2130     6.9960    21.8150 os         1 L8T      -0.470100
     12 O12          2.4980     6.6030    23.2380 o          1 L8T      -0.524000
     13 C13          4.9960     7.4810    22.9280 c3         1 L8T       0.172600
     14 C14          6.3650     7.9500    22.4170 c3         1 L8T      -0.101100
     15 N15          3.8680     6.2940    19.2210 ns         1 L8T      -0.384100
     16 C16          4.4320     6.2100    17.9550 c          1 L8T       0.635300
     17 O17          3.7700     5.8970    16.9800 o          1 L8T      -0.547100
     18 C18          6.5180     6.7160    15.2920 c          1 L8T       0.725200
     19 O19          5.3840     6.6520    14.8430 o          1 L8T      -0.698500
     20 O20          7.4940     6.8440    14.5630 o          1 L8T      -0.698500
     21 C21          5.9110     6.5160    17.8650 ce         1 L8T      -0.298400
     22 C22          6.7590     6.6990    16.7950 cf         1 L8T      -0.012400
     23 C23          8.1810     6.8920    17.3640 c5         1 L8T      -0.065200
     24 C24          8.0980     6.2460    18.7650 c5         1 L8T      -0.081400
     25 C25          6.6590     6.6200    19.1970 c5         1 L8T      -0.027200
     26 H1          -2.0840     6.4800    21.7300 hc         1 L8T       0.033200
     27 H2          -2.1270     5.2880    23.0260 hc         1 L8T       0.033200
     28 H3          -1.4460     3.4880    21.3800 hc         1 L8T       0.033700
     29 H4          -2.9640     4.2580    20.9190 hc         1 L8T       0.033700
     30 H5          -1.3120     3.9690    18.9870 hc         1 L8T       0.042200
     31 H6          -1.8840     5.6160    19.2100 hc         1 L8T       0.042200
     32 H7           0.0090     6.7050    22.8500 hc         1 L8T       0.055700
     33 H8           0.2540     4.9680    22.9920 hc         1 L8T       0.055700
     34 H9           4.4930     8.3280    23.4130 h1         1 L8T       0.042200
     35 H10          5.1410     6.6910    23.6770 h1         1 L8T       0.042200
     36 H11          6.9440     8.3810    23.2420 hc         1 L8T       0.045033
     37 H12          6.9360     7.1090    22.0100 hc         1 L8T       0.045033
     38 H13          6.2480     8.7210    21.6470 hc         1 L8T       0.045033
     39 H14          4.5100     6.5980    19.9440 hn         1 L8T       0.344500
     40 H16          8.9510     6.4130    16.7490 hc         1 L8T       0.060700
     41 H17          8.4300     7.9580    17.4260 hc         1 L8T       0.060700
     42 H18          8.2170     5.1580    18.7020 hc         1 L8T       0.028700
     43 H19          8.8620     6.6230    19.4560 hc         1 L8T       0.028700
     44 H20          6.6080     7.6430    19.5860 hc         1 L8T       0.025200
     45 H21          6.2990     5.9300    19.9690 hc         1 L8T       0.025200
@<TRIPOS>BOND
     1     1     2 1   
     2     1     4 1   
     3     1    26 1   
     4     1    27 1   
     5     2     3 1   
     6     2    28 1   
     7     2    29 1   
     8     3     9 1   
     9     3    30 1   
    10     3    31 1   
    11     4     8 1   
    12     4    32 1   
    13     4    33 1   
    14     5     6 1   
    15     5     9 1   
    16     6     7 2   
    17     6    15 1   
    18     7     8 1   
    19     7    10 1   
    20     8     9 2   
    21    10    11 1   
    22    10    12 2   
    23    11    13 1   
    24    13    14 1   
    25    13    34 1   
    26    13    35 1   
    27    14    36 1   
    28    14    37 1   
    29    14    38 1   
    30    15    16 1   
    31    15    39 1   
    32    16    17 2   
    33    16    21 1   
    34    18    19 1   
    35    18    20 1   
    36    18    22 1   
    37    21    22 2   
    38    21    25 1   
    39    22    23 1   
    40    23    24 1   
    41    23    40 1   
    42    23    41 1   
    43    24    25 1   
    44    24    42 1   
    45    24    43 1   
    46    25    44 1   
    47    25    45 1   
@<TRIPOS>SUBSTRUCTURE
     1 L8T         1 TEMP              0 ****  ****    0 ROOT
