@<TRIPOS>MOLECULE
L8U
   18    18     1     0     0
SMALL
bcc


@<TRIPOS>ATOM
      1 C01         32.9330    12.0160    17.8190 ca         1 L8U      -0.167000
      2 C02         32.8980    13.1880    18.5730 ca         1 L8U       0.053100
      3 C03         32.3010    13.2420    19.8140 ca         1 L8U      -0.170000
      4 C04         31.7080    12.0910    20.3430 ca         1 L8U       0.228100
      5 C05         31.7240    10.8890    19.6000 ca         1 L8U      -0.294600
      6 C06         32.3440    10.8890    18.3440 ca         1 L8U      -0.043000
      7 C07         31.0960     9.6870    20.1600 c          1 L8U       0.605700
      8 C08         31.1250     8.4340    19.3130 c3         1 L8U      -0.120000
      9 O09         30.5740     9.6960    21.2620 o          1 L8U      -0.533100
     10 O10         31.1480    12.1950    21.5400 oh         1 L8U      -0.492100
     11 BR1         30.2290     6.9430    20.1560 br         1 L8U      -0.117400
     12 BR2         33.6900    14.7440    17.8730 br         1 L8U      -0.077100
     13 H1          33.4080    11.9830    16.8490 ha         1 L8U       0.156000
     14 H2          32.2780    14.1550    20.3960 ha         1 L8U       0.170000
     15 H3          32.3750     9.9840    17.7510 ha         1 L8U       0.133000
     16 H4          30.6420     8.6170    18.3510 h1         1 L8U       0.096700
     17 H5          32.1570     8.1370    19.1160 h1         1 L8U       0.096700
     18 H6          30.7800    11.3190    21.7860 ho         1 L8U       0.477000
@<TRIPOS>BOND
     1     1     2 ar  
     2     1     6 ar  
     3     1    13 1   
     4     2     3 ar  
     5     2    12 1   
     6     3     4 ar  
     7     3    14 1   
     8     4     5 ar  
     9     4    10 1   
    10     5     6 ar  
    11     5     7 1   
    12     6    15 1   
    13     7     8 1   
    14     7     9 2   
    15     8    11 1   
    16     8    16 1   
    17     8    17 1   
    18    10    18 1   
@<TRIPOS>SUBSTRUCTURE
     1 L8U         1 TEMP              0 ****  ****    0 ROOT
