@<TRIPOS>MOLECULE
L8U
   18    18     1     0     0
SMALL
No Charge or Current Charge


@<TRIPOS>ATOM
      1 C01         32.9430    12.0590    17.8160 ca         1 L8U      -0.149000
      2 C02         32.9310    13.2480    18.5560 ca         1 L8U       0.053100
      3 C03         32.3200    13.2800    19.8150 ca         1 L8U      -0.152000
      4 C04         31.7200    12.1270    20.3400 ca         1 L8U       0.228100
      5 C05         31.7200    10.9130    19.6080 ca         1 L8U      -0.294600
      6 C06         32.3440    10.8990    18.3340 ca         1 L8U      -0.025000
      7 C07         31.0750     9.6540    20.1600 c          1 L8U       0.605700
      8 C08         31.1030     8.3630    19.3260 c3         1 L8U      -0.037400
      9 O09         30.5360     9.6720    21.2640 o          1 L8U      -0.533100
     10 O10         31.1390    12.2110    21.5680 oh         1 L8U      -0.531100
     11 Br1         30.2130     6.7840    20.1810 br         1 L8U      -0.200000
     12 Br2         33.7490    14.8260    17.8470 br         1 L8U      -0.077100
     13 H1          33.4180    12.0340    16.8380 ha         1 L8U       0.138000
     14 H2          32.3110    14.2020    20.3900 ha         1 L8U       0.152000
     15 H3          32.3760     9.9970    17.7260 ha         1 L8U       0.115000
     16 H4          30.5920     8.5440    18.3730 h1         1 L8U       0.096700
     17 H5          32.1460     8.0830    19.1390 h1         1 L8U       0.096700
     18 H6          30.7750    11.3120    21.7660 ho         1 L8U       0.516000
@<TRIPOS>BOND
     1     1     2 ar  
     2     1     6 ar  
     3     1    13 1   
     4     2     3 ar  
     5     2    12 1   
     6     3     4 ar  
     7     3    14 1   
     8     4     5 ar  
     9     4    10 1   
    10     5     6 ar  
    11     5     7 1   
    12     6    15 1   
    13     7     8 1   
    14     7     9 2   
    15     8    11 1   
    16     8    16 1   
    17     8    17 1   
    18    10    18 1   
@<TRIPOS>SUBSTRUCTURE
     1 L8U         1 TEMP              0 ****  ****    0 ROOT
