@<TRIPOS>MOLECULE
L8V
   49    52     1     0     0
SMALL
No Charge or Current Charge


@<TRIPOS>ATOM
      1 N1          -7.9440     1.9560    -1.1690 nb         1 L8V      -0.763000
      2 C2          -6.6360     2.1340    -1.2540 ca         1 L8V       0.621900
      3 C3          -5.6920     1.5970    -0.3880 ca         1 L8V      -0.307000
      4 C4          -6.1550     0.7980     0.6650 ca         1 L8V       0.206100
      5 O5          -5.3010     0.2310     1.5840 os         1 L8V      -0.226200
      6 C6          -3.9850    -0.0590     1.2980 ca         1 L8V       0.014100
      7 C7          -2.9760     0.4930     2.1040 ca         1 L8V      -0.056000
      8 C8          -1.6260     0.2060     1.8310 ca         1 L8V      -0.180000
      9 C9          -1.2720    -0.6450     0.7710 ca         1 L8V       0.347000
     10 C10         -2.2840    -1.1900    -0.0380 ca         1 L8V      -0.181000
     11 C11         -3.6320    -0.9080     0.2270 ca         1 L8V       0.191000
     12 F12         -4.5860    -1.4640    -0.5550 f          1 L8V      -0.163000
     13 N13          0.0830    -0.8720     0.5400 nu         1 L8V      -0.935900
     14 C14          0.8430    -1.8830    -0.0010 ca         1 L8V       0.672900
     15 C15          2.2320    -1.7570    -0.2140 ca         1 L8V      -0.280600
     16 C16          2.9100    -2.8670    -0.7710 ca         1 L8V      -0.007000
     17 C17          2.1740    -4.0210    -1.0640 ca         1 L8V      -0.228000
     18 C18          0.8020    -4.0440    -0.7950 ca         1 L8V       0.419900
     19 N19          0.1480    -2.9920    -0.2680 nb         1 L8V      -0.749000
     20 C20          2.9720    -0.4900     0.1460 c          1 L8V       0.638700
     21 O21          2.4510     0.3910     0.8220 o          1 L8V      -0.613100
     22 N22          4.2810    -0.4080    -0.3140 ns         1 L8V      -0.144000
     23 C23          5.2970     0.5880    -0.1830 ca         1 L8V      -0.104000
     24 C24          5.1070     1.8140     0.4990 ca         1 L8V      -0.047000
     25 C25          6.1580     2.7450     0.5850 ca         1 L8V      -0.157000
     26 C26          7.3990     2.4650    -0.0030 ca         1 L8V       0.198000
     27 C27          7.6020     1.2580    -0.6810 ca         1 L8V      -0.188000
     28 C28          6.5560     0.3280    -0.7680 ca         1 L8V       0.179000
     29 F29          8.4030     3.3640     0.0840 f          1 L8V      -0.168000
     30 C30         -8.3910     1.1930    -0.1460 ca         1 L8V       0.404900
     31 C31         -7.5330     0.6010     0.7910 ca         1 L8V      -0.243000
     32 F32          6.7670    -0.8350    -1.4270 f          1 L8V      -0.171000
     33 N33         -6.3200     2.9000    -2.2940 nv         1 L8V      -1.055900
     34 H3          -4.6360     1.8020    -0.5270 ha         1 L8V       0.131000
     35 H7          -3.2400     1.1460     2.9330 ha         1 L8V       0.134000
     36 H8          -0.8530     0.6430     2.4580 ha         1 L8V       0.128000
     37 H10         -2.0360    -1.8240    -0.8810 ha         1 L8V       0.167000
     38 HN13         0.6970    -0.1430     0.9110 hn         1 L8V       0.540000
     39 H16          3.9810    -2.8640    -0.9650 ha         1 L8V       0.117000
     40 H17          2.6570    -4.8970    -1.4880 ha         1 L8V       0.134000
     41 H18          0.2080    -4.9320    -1.0070 h4         1 L8V       0.025100
     42 HN22         4.5740    -1.2080    -0.8590 hn         1 L8V       0.168000
     43 H24          4.1600     2.0670     0.9650 ha         1 L8V       0.137000
     44 H25          6.0100     3.6860     1.1090 ha         1 L8V       0.143000
     45 H27          8.5640     1.0430    -1.1370 ha         1 L8V       0.154000
     46 H30         -9.4690     1.0540    -0.0780 h4         1 L8V       0.017100
     47 H31         -7.9370    -0.0030     1.5970 ha         1 L8V       0.138000
     48 HN33        -7.0660     3.0220    -2.9680 hn         1 L8V       0.471500
     49 HN3A        -5.3810     2.8190    -2.6670 hn         1 L8V       0.471500
@<TRIPOS>BOND
     1     1     2 ar  
     2     1    30 ar  
     3     2     3 ar  
     4     2    33 1   
     5     3     4 ar  
     6     3    34 1   
     7     4     5 1   
     8     4    31 ar  
     9     5     6 1   
    10     6     7 ar  
    11     6    11 ar  
    12     7     8 ar  
    13     7    35 1   
    14     8     9 ar  
    15     8    36 1   
    16     9    10 ar  
    17     9    13 1   
    18    10    11 ar  
    19    10    37 1   
    20    11    12 1   
    21    13    14 1   
    22    13    38 1   
    23    14    15 ar  
    24    14    19 ar  
    25    15    16 ar  
    26    15    20 1   
    27    16    17 ar  
    28    16    39 1   
    29    17    18 ar  
    30    17    40 1   
    31    18    19 ar  
    32    18    41 1   
    33    20    21 2   
    34    20    22 1   
    35    22    23 1   
    36    22    42 1   
    37    23    24 ar  
    38    23    28 ar  
    39    24    25 ar  
    40    24    43 1   
    41    25    26 ar  
    42    25    44 1   
    43    26    27 ar  
    44    26    29 1   
    45    27    28 ar  
    46    27    45 1   
    47    28    32 1   
    48    30    31 ar  
    49    30    46 1   
    50    31    47 1   
    51    33    48 1   
    52    33    49 1   
@<TRIPOS>SUBSTRUCTURE
     1 L8V         1 TEMP              0 ****  ****    0 ROOT
