@<TRIPOS>MOLECULE
L8V
   49    52     1     0     0
SMALL
bcc


@<TRIPOS>ATOM
      1 N1          -7.5310     2.1670    -1.3740 nb         1 L8V      -0.763000
      2 C2          -6.2390     1.9580    -1.6220 ca         1 L8V       0.687200
      3 C3          -5.3760     1.3410    -0.7000 ca         1 L8V      -0.390300
      4 C4          -5.9040     0.9360     0.5080 ca         1 L8V       0.206100
      5 O5          -5.1820     0.3340     1.4840 os         1 L8V      -0.226200
      6 C6          -3.8690     0.0270     1.2450 ca         1 L8V       0.014100
      7 C7          -2.8460     0.8390     1.7070 ca         1 L8V      -0.074000
      8 C8          -1.5270     0.4860     1.5020 ca         1 L8V      -0.198000
      9 C9          -1.1900    -0.6920     0.8190 ca         1 L8V       0.208600
     10 C10         -2.2200    -1.5110     0.3500 ca         1 L8V      -0.199000
     11 C11         -3.5280    -1.1330     0.5710 ca         1 L8V       0.155900
     12 F12         -4.5110    -1.9160     0.1120 f          1 L8V      -0.127900
     13 N13          0.1630    -0.9310     0.6480 nu         1 L8V      -0.742300
     14 C14          0.8270    -1.9990     0.1250 ca         1 L8V       0.738200
     15 C15          2.2390    -1.9380    -0.0510 ca         1 L8V      -0.345900
     16 C16          2.8680    -3.0840    -0.5180 ca         1 L8V      -0.025000
     17 C17          2.1350    -4.2140    -0.8410 ca         1 L8V      -0.311300
     18 C18          0.7640    -4.1430    -0.6850 ca         1 L8V       0.485200
     19 N19          0.1320    -3.0770    -0.2150 nb         1 L8V      -0.749000
     20 C20          3.0130    -0.7130     0.2700 c          1 L8V       0.705700
     21 O21          2.6070     0.1340     1.0580 o          1 L8V      -0.613100
     22 N22          4.2000    -0.5770    -0.3680 ns         1 L8V      -0.470100
     23 C23          5.0490     0.5250    -0.1630 ca         1 L8V      -0.011400
     24 C24          5.5820     0.8270     1.0850 ca         1 L8V      -0.065000
     25 C25          6.4160     1.9180     1.2610 ca         1 L8V      -0.175000
     26 C26          6.7240     2.6990     0.1630 ca         1 L8V       0.162900
     27 C27          6.2290     2.4310    -1.0970 ca         1 L8V      -0.206000
     28 C28          5.3860     1.3460    -1.2300 ca         1 L8V       0.143900
     29 F29          7.5350     3.7520     0.3180 f          1 L8V      -0.132900
     30 C30         -8.0040     1.7690    -0.1960 ca         1 L8V       0.470200
     31 C31         -7.2570     1.1520     0.7830 ca         1 L8V      -0.326300
     32 F32          4.8790     1.0680    -2.4350 f          1 L8V      -0.135900
     33 N33         -5.7550     2.4090    -2.8130 nv         1 L8V      -0.945500
     34 H3          -4.3320     1.2050    -0.9490 ha         1 L8V       0.149000
     35 H7          -3.0860     1.7510     2.2370 ha         1 L8V       0.152000
     36 H8          -0.7440     1.1360     1.8720 ha         1 L8V       0.146000
     37 H10         -2.0110    -2.4300    -0.1740 ha         1 L8V       0.185000
     38 HN13         0.7800    -0.2080     1.0020 hn         1 L8V       0.484800
     39 H16          3.9450    -3.1150    -0.6220 ha         1 L8V       0.135000
     40 H17          2.6110    -5.1130    -1.2020 ha         1 L8V       0.152000
     41 H18          0.1370    -4.9890    -0.9420 h4         1 L8V       0.025100
     42 HN22         4.4090    -1.1830    -1.1460 hn         1 L8V       0.334500
     43 H24          5.3500     0.1930     1.9300 ha         1 L8V       0.155000
     44 H25          6.8280     2.1480     2.2350 ha         1 L8V       0.161000
     45 H27          6.4780     3.0500    -1.9490 ha         1 L8V       0.172000
     46 H30         -9.0580     1.9520    -0.0220 h4         1 L8V       0.017100
     47 H31         -7.7000     0.8430     1.7200 ha         1 L8V       0.156000
     48 HN33        -6.4370     2.6000    -3.5280 hn         1 L8V       0.416300
     49 HN3A        -4.8970     2.0090    -3.1530 hn         1 L8V       0.416300
@<TRIPOS>BOND
     1     1     2 ar  
     2     1    30 ar  
     3     2     3 ar  
     4     2    33 1   
     5     3     4 ar  
     6     3    34 1   
     7     4     5 1   
     8     4    31 ar  
     9     5     6 1   
    10     6     7 ar  
    11     6    11 ar  
    12     7     8 ar  
    13     7    35 1   
    14     8     9 ar  
    15     8    36 1   
    16     9    10 ar  
    17     9    13 1   
    18    10    11 ar  
    19    10    37 1   
    20    11    12 1   
    21    13    14 1   
    22    13    38 1   
    23    14    15 ar  
    24    14    19 ar  
    25    15    16 ar  
    26    15    20 1   
    27    16    17 ar  
    28    16    39 1   
    29    17    18 ar  
    30    17    40 1   
    31    18    19 ar  
    32    18    41 1   
    33    20    21 2   
    34    20    22 1   
    35    22    23 1   
    36    22    42 1   
    37    23    24 ar  
    38    23    28 ar  
    39    24    25 ar  
    40    24    43 1   
    41    25    26 ar  
    42    25    44 1   
    43    26    27 ar  
    44    26    29 1   
    45    27    28 ar  
    46    27    45 1   
    47    28    32 1   
    48    30    31 ar  
    49    30    46 1   
    50    31    47 1   
    51    33    48 1   
    52    33    49 1   
@<TRIPOS>SUBSTRUCTURE
     1 L8V         1 TEMP              0 ****  ****    0 ROOT
