@<TRIPOS>MOLECULE
L8X
   52    55     1     0     0
SMALL
No Charge or Current Charge


@<TRIPOS>ATOM
      1 O4          32.2790   -15.4740    -5.9950 o          1 L8X      -0.492000
      2 C4          26.5710   -10.0320    -9.7060 c6         1 L8X       0.007800
      3 C2          27.8470    -7.9810   -10.6890 c          1 L8X       0.564100
      4 O2          28.7780    -7.1860   -10.7490 o          1 L8X      -0.484000
      5 C10         29.8980   -11.8780    -8.7400 ca         1 L8X      -0.056300
      6 N1          28.9960    -9.5560    -9.0310 n          1 L8X      -0.384800
      7 C6          28.4140   -11.3810   -10.6750 cc         1 L8X      -0.078300
      8 C7          29.4520   -10.8020    -9.7410 c6         1 L8X       0.218200
      9 C19         27.0300   -13.4730   -13.3310 ca         1 L8X      -0.126000
     10 C20         25.6830   -13.5370   -13.7550 ca         1 L8X      -0.090000
     11 C9          29.4770    -7.5910    -7.4730 c3         1 L8X       0.036600
     12 C1          26.9730    -7.2030   -12.8030 c3         1 L8X       0.150900
     13 C11         31.1680   -12.4730    -8.8540 ca         1 L8X      -0.108000
     14 C12         31.5770   -13.4600    -7.9410 ca         1 L8X      -0.054000
     15 C13         30.7220   -13.8740    -6.8960 ca         1 L8X      -0.137600
     16 C14         29.4460   -13.2740    -6.7860 ca         1 L8X      -0.054000
     17 C15         29.0400   -12.2880    -7.7010 ca         1 L8X      -0.108000
     18 C16         31.1800   -14.9380    -5.9230 c          1 L8X       0.606700
     19 C17         30.5910   -16.2450    -3.9820 c3         1 L8X       0.153900
     20 C18         27.3440   -12.5970   -12.2840 ca         1 L8X      -0.040200
     21 C21         24.6950   -12.7350   -13.1310 ca         1 L8X      -0.138000
     22 C22         25.0420   -11.8610   -12.0780 ca         1 L8X      -0.060000
     23 C23         26.3850   -11.8260   -11.6850 ca         1 L8X      -0.081800
     24 C3          27.6760    -8.9550    -9.4800 c6         1 L8X       0.058700
     25 C5          27.0710   -11.0660   -10.6700 cd         1 L8X      -0.140400
     26 N2          28.5710   -12.3480   -11.6890 na         1 L8X      -0.206700
     27 O1          26.8730    -8.0640   -11.6540 os         1 L8X      -0.430100
     28 O3          31.1400    -9.0970    -8.3250 o          1 L8X      -0.555100
     29 O5          30.2530   -15.2430    -4.9580 os         1 L8X      -0.438100
     30 H1          25.6350    -9.5750   -10.0540 hc         1 L8X       0.071200
     31 H2          26.3300   -10.5090    -8.7470 hc         1 L8X       0.071200
     32 H3          30.3250   -10.5260   -10.3500 h1         1 L8X       0.084700
     33 H4          27.7950   -14.0840   -13.8040 ha         1 L8X       0.116000
     34 H5          25.4040   -14.2060   -14.5660 ha         1 L8X       0.112000
     35 H6          30.3570    -7.0770    -7.0720 h1         1 L8X       0.091700
     36 H7          28.9130    -6.8900    -8.0970 h1         1 L8X       0.091700
     37 H9          26.1330    -7.3810   -13.4870 h1         1 L8X       0.051700
     38 H10         26.9510    -6.1470   -12.5050 h1         1 L8X       0.051700
     39 H11         27.9040    -7.3910   -13.3530 h1         1 L8X       0.051700
     40 H12         31.8450   -12.1700    -9.6490 ha         1 L8X       0.120500
     41 H13         32.5650   -13.9040    -8.0500 ha         1 L8X       0.133500
     42 H14         28.7580   -13.5670    -5.9950 ha         1 L8X       0.133500
     43 H15         28.0550   -11.8400    -7.6000 ha         1 L8X       0.120500
     44 H16         29.7630   -16.3860    -3.2760 h1         1 L8X       0.048367
     45 H17         30.7950   -17.2100    -4.4650 h1         1 L8X       0.048367
     46 H18         31.4790   -15.9490    -3.4080 h1         1 L8X       0.048367
     47 H19         23.6620   -12.7930   -13.4660 ha         1 L8X       0.112000
     48 H20         24.2940   -11.2400   -11.5900 ha         1 L8X       0.114000
     49 H21         27.2820    -8.3130    -8.6830 h1         1 L8X       0.091700
     50 H22         29.4430   -12.8020   -11.9400 hn         1 L8X       0.357000
     51 Cl1         28.4310    -8.0860    -6.0570 cl         1 L8X      -0.255000
     52 C8          29.9540    -8.7850    -8.3220 c          1 L8X       0.602100
@<TRIPOS>BOND
     1     1    18 2   
     2     2    24 1   
     3     2    25 1   
     4     2    30 1   
     5     2    31 1   
     6     3     4 2   
     7     3    24 1   
     8     3    27 1   
     9     5     8 1   
    10     5    13 ar  
    11     5    17 ar  
    12     6     8 1   
    13     6    24 1   
    14     6    52 1   
    15     7     8 1   
    16     7    25 2   
    17     7    26 1   
    18     8    32 1   
    19     9    10 ar  
    20     9    20 ar  
    21     9    33 1   
    22    10    21 ar  
    23    10    34 1   
    24    11    35 1   
    25    11    36 1   
    26    11    51 1   
    27    11    52 1   
    28    12    27 1   
    29    12    37 1   
    30    12    38 1   
    31    12    39 1   
    32    13    14 ar  
    33    13    40 1   
    34    14    15 ar  
    35    14    41 1   
    36    15    16 ar  
    37    15    18 1   
    38    16    17 ar  
    39    16    42 1   
    40    17    43 1   
    41    18    29 1   
    42    19    29 1   
    43    19    44 1   
    44    19    45 1   
    45    19    46 1   
    46    20    23 ar  
    47    20    26 1   
    48    21    22 ar  
    49    21    47 1   
    50    22    23 ar  
    51    22    48 1   
    52    23    25 1   
    53    24    49 1   
    54    26    50 1   
    55    28    52 2   
@<TRIPOS>SUBSTRUCTURE
     1 L8X         1 TEMP              0 ****  ****    0 ROOT
