@<TRIPOS>MOLECULE
L8X
   52    55     1     0     0
SMALL
abcg2


@<TRIPOS>ATOM
      1 O4          32.0980   -15.5840    -6.3250 o          1 L8X      -0.492000
      2 C4          26.5280    -9.9270    -9.7000 c6         1 L8X       0.007800
      3 C2          28.0030    -8.1720   -10.8190 c          1 L8X       0.564100
      4 O2          29.1300    -7.8910   -11.1360 o          1 L8X      -0.484000
      5 C10         29.8460   -11.8000    -8.7480 ca         1 L8X      -0.056300
      6 N1          28.8670    -9.5560    -9.0270 n          1 L8X      -0.384800
      7 C6          28.3630   -11.2990   -10.6220 cc         1 L8X      -0.078300
      8 C7          29.4100   -10.7250    -9.7270 c6         1 L8X       0.218200
      9 C19         27.1660   -13.5280   -13.1690 ca         1 L8X      -0.126000
     10 C20         25.8560   -13.6520   -13.5940 ca         1 L8X      -0.090000
     11 C9          29.2600    -7.7170    -7.4160 c3         1 L8X       0.036600
     12 C1          27.1240    -7.0960   -12.7130 c3         1 L8X       0.150900
     13 C11         31.0100   -12.5190    -8.9870 ca         1 L8X      -0.108000
     14 C12         31.3950   -13.5400    -8.1350 ca         1 L8X      -0.054000
     15 C13         30.6230   -13.8540    -7.0200 ca         1 L8X      -0.137600
     16 C14         29.4500   -13.1380    -6.7830 ca         1 L8X      -0.054000
     17 C15         29.0630   -12.1260    -7.6450 ca         1 L8X      -0.108000
     18 C16         31.0980   -14.9360    -6.1220 c          1 L8X       0.606700
     19 C17         30.6890   -16.1230    -4.1340 c3         1 L8X       0.153900
     20 C18         27.4280   -12.6080   -12.1560 ca         1 L8X      -0.040200
     21 C21         24.8260   -12.8820   -13.0280 ca         1 L8X      -0.138000
     22 C22         25.0890   -11.9700   -12.0250 ca         1 L8X      -0.060000
     23 C23         26.4050   -11.8240   -11.5740 ca         1 L8X      -0.081800
     24 C3          27.6600    -8.9180    -9.5280 c6         1 L8X       0.058700
     25 C5          27.0350   -11.0000   -10.5930 cd         1 L8X      -0.140400
     26 N2          28.6080   -12.2670   -11.5540 na         1 L8X      -0.206700
     27 O1          26.9290    -7.8360   -11.5050 os         1 L8X      -0.430100
     28 O3          30.9040    -9.2680    -8.1070 o          1 L8X      -0.555100
     29 O5          30.3150   -15.1140    -5.0700 os         1 L8X      -0.438100
     30 H1          25.6460    -9.4340   -10.1050 hc         1 L8X       0.071200
     31 H2          26.2500   -10.3050    -8.7120 hc         1 L8X       0.071200
     32 H3          30.2810   -10.4300   -10.3250 h1         1 L8X       0.084700
     33 H4          27.9570   -14.1220   -13.6080 ha         1 L8X       0.116000
     34 H5          25.6200   -14.3580   -14.3790 ha         1 L8X       0.112000
     35 H6          30.0920    -7.3380    -6.8290 h1         1 L8X       0.091700
     36 H7          28.8630    -6.9040    -8.0210 h1         1 L8X       0.091700
     37 H9          26.1320    -6.9210   -13.1170 h1         1 L8X       0.051700
     38 H10         27.6110    -6.1420   -12.5180 h1         1 L8X       0.051700
     39 H11         27.7150    -7.6640   -13.4310 h1         1 L8X       0.051700
     40 H12         31.6300   -12.2730    -9.8400 ha         1 L8X       0.120500
     41 H13         32.3090   -14.0830    -8.3340 ha         1 L8X       0.133500
     42 H14         28.8280   -13.3630    -5.9280 ha         1 L8X       0.133500
     43 H15         28.1500   -11.5810    -7.4420 ha         1 L8X       0.120500
     44 H16         29.9290   -16.1060    -3.3580 h1         1 L8X       0.048367
     45 H17         30.7110   -17.1090    -4.5970 h1         1 L8X       0.048367
     46 H18         31.6630   -15.9120    -3.6910 h1         1 L8X       0.048367
     47 H19         23.8140   -13.0080   -13.3880 ha         1 L8X       0.112000
     48 H20         24.2910   -11.3790   -11.5940 ha         1 L8X       0.114000
     49 H21         27.3270    -8.1660    -8.8110 h1         1 L8X       0.091700
     50 H22         29.5090   -12.6590   -11.7740 hn         1 L8X       0.357000
     51 CL1         27.9840    -8.2390    -6.2680 cl         1 L8X      -0.255000
     52 C8          29.7520    -8.9020    -8.2290 c          1 L8X       0.602100
@<TRIPOS>BOND
     1     1    18 2   
     2     2    24 1   
     3     2    25 1   
     4     2    30 1   
     5     2    31 1   
     6     3     4 2   
     7     3    24 1   
     8     3    27 1   
     9     5     8 1   
    10     5    13 ar  
    11     5    17 ar  
    12     6     8 1   
    13     6    24 1   
    14     6    52 1   
    15     7     8 1   
    16     7    25 2   
    17     7    26 1   
    18     8    32 1   
    19     9    10 ar  
    20     9    20 ar  
    21     9    33 1   
    22    10    21 ar  
    23    10    34 1   
    24    11    35 1   
    25    11    36 1   
    26    11    51 1   
    27    11    52 1   
    28    12    27 1   
    29    12    37 1   
    30    12    38 1   
    31    12    39 1   
    32    13    14 ar  
    33    13    40 1   
    34    14    15 ar  
    35    14    41 1   
    36    15    16 ar  
    37    15    18 1   
    38    16    17 ar  
    39    16    42 1   
    40    17    43 1   
    41    18    29 1   
    42    19    29 1   
    43    19    44 1   
    44    19    45 1   
    45    19    46 1   
    46    20    23 ar  
    47    20    26 1   
    48    21    22 ar  
    49    21    47 1   
    50    22    23 ar  
    51    22    48 1   
    52    23    25 1   
    53    24    49 1   
    54    26    50 1   
    55    28    52 2   
@<TRIPOS>SUBSTRUCTURE
     1 L8X         1 TEMP              0 ****  ****    0 ROOT
