@<TRIPOS>MOLECULE
L8Y
   45    47     1     0     0
SMALL
bcc


@<TRIPOS>ATOM
      1 C13         -4.4920    -0.3960     0.3000 ca         1 L8Y      -0.235300
      2 C18          3.8500     1.6180     0.2170 ca         1 L8Y      -0.186600
      3 C17          4.3840     2.8720    -0.0740 ca         1 L8Y      -0.086000
      4 C16          3.8250     3.6810    -1.0490 ca         1 L8Y      -0.154000
      5 C15          2.7320     3.2190    -1.7690 ca         1 L8Y      -0.089000
      6 C19          4.4190     0.8260     1.3570 c          1 L8Y       0.681700
      7 C11         -6.4680     0.9050     0.5230 ca         1 L8Y      -0.024400
      8 C12         -5.8640    -0.3350     0.4580 ca         1 L8Y      -0.109000
      9 C1           0.5940    -1.8770    -0.1450 ca         1 L8Y      -0.388900
     10 C2          -0.7470    -2.1870     0.0050 ca         1 L8Y       0.504200
     11 N1          -1.7410    -1.3150     0.0700 nb         1 L8Y      -0.774000
     12 C3          -1.4190    -0.0270    -0.0010 ca         1 L8Y       0.738200
     13 C4          -0.1040     0.4250    -0.1200 ca         1 L8Y      -0.402300
     14 C5           0.9380    -0.4940    -0.1900 ca         1 L8Y       0.319600
     15 N2           2.2420    -0.1270    -0.2920 nu         1 L8Y      -0.644000
     16 N4           1.2460    -4.1370    -0.6580 ns         1 L8Y      -0.564900
     17 O1           2.7910    -2.7320     0.1560 o          1 L8Y      -0.635100
     18 C7           2.1560    -5.2570    -0.7200 c3         1 L8Y       0.094300
     19 C8           2.7410     1.1580    -0.5070 ca         1 L8Y       0.207600
     20 C9          -3.7790     0.8060     0.2170 ca         1 L8Y       0.661200
     21 N5          -4.3850     1.9890     0.2810 nb         1 L8Y      -0.727000
     22 C10         -5.6990     2.0450     0.4290 ca         1 L8Y       0.410200
     23 F1          -7.7970     1.0080     0.6750 f          1 L8Y      -0.136900
     24 C14          2.2080     1.9630    -1.5140 ca         1 L8Y      -0.170000
     25 N6           5.7580     0.7730     1.3950 nt         1 L8Y      -0.672000
     26 O2           3.7030     0.3020     2.1970 o          1 L8Y      -0.585100
     27 H11         -3.9840    -1.3440     0.2410 ha         1 L8Y       0.182000
     28 H15          5.2320     3.2330     0.4930 ha         1 L8Y       0.135000
     29 H14          4.2400     4.6600    -1.2460 ha         1 L8Y       0.138000
     30 H13          2.2950     3.8280    -2.5480 ha         1 L8Y       0.136000
     31 H10         -6.4490    -1.2420     0.5270 ha         1 L8Y       0.154000
     32 H1          -1.0500    -3.2250     0.1000 h4         1 L8Y       0.013100
     33 H2           0.0900     1.4890    -0.1290 ha         1 L8Y       0.154000
     34 H3           2.8910    -0.8590    -0.0260 hn         1 L8Y       0.494800
     35 H4          -2.1040     1.8760    -0.0030 hn         1 L8Y       0.457800
     36 H5           0.3430    -4.2460    -1.0860 hn         1 L8Y       0.317500
     37 H6           1.6090    -6.1190    -1.0910 h1         1 L8Y       0.041700
     38 H7           2.9940    -5.0640    -1.3900 h1         1 L8Y       0.041700
     39 H8           2.5530    -5.5020     0.2650 h1         1 L8Y       0.041700
     40 H9          -6.1530     3.0290     0.4770 h4         1 L8Y       0.035100
     41 H12          1.3860     1.5950    -2.1130 ha         1 L8Y       0.145000
     42 H16          6.3280     1.1050     0.6350 hn         1 L8Y       0.316000
     43 H17          6.2220     0.2770     2.1390 hn         1 L8Y       0.316000
     44 N3          -2.4100     0.9160     0.0580 nu         1 L8Y      -0.848600
     45 C6           1.6280    -2.9370    -0.2020 c          1 L8Y       0.701700
@<TRIPOS>BOND
     1     1     8 ar  
     2     1    20 ar  
     3     1    27 1   
     4     2     3 ar  
     5     2     6 1   
     6     2    19 ar  
     7     3     4 ar  
     8     3    28 1   
     9     4     5 ar  
    10     4    29 1   
    11     5    24 ar  
    12     5    30 1   
    13     6    25 1   
    14     6    26 2   
    15     7     8 ar  
    16     7    22 ar  
    17     7    23 1   
    18     8    31 1   
    19     9    10 ar  
    20     9    14 ar  
    21     9    45 1   
    22    10    11 ar  
    23    10    32 1   
    24    11    12 ar  
    25    12    13 ar  
    26    12    44 1   
    27    13    14 ar  
    28    13    33 1   
    29    14    15 1   
    30    15    19 1   
    31    15    34 1   
    32    16    18 1   
    33    16    36 1   
    34    16    45 1   
    35    17    45 2   
    36    18    37 1   
    37    18    38 1   
    38    18    39 1   
    39    19    24 ar  
    40    20    21 ar  
    41    20    44 1   
    42    21    22 ar  
    43    22    40 1   
    44    24    41 1   
    45    25    42 1   
    46    25    43 1   
    47    35    44 1   
@<TRIPOS>SUBSTRUCTURE
     1 L8Y         1 TEMP              0 ****  ****    0 ROOT
