@<TRIPOS>MOLECULE
L8Y
   45    47     1     0     0
SMALL
No Charge or Current Charge


@<TRIPOS>ATOM
      1 C13         -4.6080    -0.4020     0.5910 ca         1 L8Y      -0.152000
      2 C18          4.0410     1.5400     0.1230 ca         1 L8Y      -0.186600
      3 C17          4.6090     2.7820    -0.2670 ca         1 L8Y      -0.068000
      4 C16          3.9770     3.6000    -1.2160 ca         1 L8Y      -0.136000
      5 C15          2.7730     3.1940    -1.8020 ca         1 L8Y      -0.071000
      6 C19          4.7540     0.6730     1.1410 c          1 L8Y       0.614700
      7 C11         -6.5750     0.9800     0.4880 ca         1 L8Y       0.076000
      8 C12         -6.0050    -0.2830     0.7100 ca         1 L8Y      -0.091000
      9 C1           0.5770    -1.8780    -0.2170 ca         1 L8Y      -0.323600
     10 C2          -0.7780    -2.2330    -0.2140 ca         1 L8Y       0.438900
     11 N1          -1.7810    -1.3440    -0.1080 nb         1 L8Y      -0.774000
     12 C3          -1.4620    -0.0630     0.0130 ca         1 L8Y       0.672900
     13 C4          -0.1600     0.4010     0.0100 ca         1 L8Y      -0.319000
     14 C5           0.8800    -0.5140    -0.1200 ca         1 L8Y       0.458000
     15 N2           2.1880    -0.0560    -0.1190 nu         1 L8Y      -0.976000
     16 N4           1.2080    -4.2020    -0.6830 ns         1 L8Y      -0.497900
     17 O1           2.8050    -2.7330    -0.0660 o          1 L8Y      -0.635100
     18 C7           2.0950    -5.3610    -0.8100 c3         1 L8Y       0.094300
     19 C8           2.8060     1.1480    -0.4590 ca         1 L8Y       0.346000
     20 C9          -3.8530     0.7390     0.2500 ca         1 L8Y       0.595900
     21 N5          -4.3830     1.9500     0.0520 nb         1 L8Y      -0.727000
     22 C10         -5.7320     2.0650     0.1660 ca         1 L8Y       0.344900
     23 F1          -7.9140     1.1500     0.5910 f          1 L8Y      -0.172000
     24 C14          2.1980     1.9730    -1.4260 ca         1 L8Y      -0.152000
     25 N6           5.7830     1.2170     1.8280 nt         1 L8Y      -0.605000
     26 O2           4.4770    -0.4950     1.3550 o          1 L8Y      -0.585100
     27 H11         -4.1300    -1.3560     0.7720 ha         1 L8Y       0.164000
     28 H15          5.5540     3.1250     0.1450 ha         1 L8Y       0.117000
     29 H14          4.4300     4.5450    -1.5070 ha         1 L8Y       0.120000
     30 H13          2.2890     3.8200    -2.5490 ha         1 L8Y       0.118000
     31 H10         -6.6240    -1.1390     0.9690 ha         1 L8Y       0.136000
     32 H1          -1.0970    -3.2710    -0.2850 h4         1 L8Y       0.013100
     33 H2           0.0400     1.4590     0.1270 ha         1 L8Y       0.136000
     34 H3           2.8510    -0.7770     0.2030 hn         1 L8Y       0.550000
     35 H4          -2.2190     1.7820     0.0050 hn         1 L8Y       0.513000
     36 H5           0.2260    -4.3250    -0.8970 hn         1 L8Y       0.317500
     37 H6           1.5110    -6.2390    -1.1150 h1         1 L8Y       0.041700
     38 H7           2.8630    -5.1570    -1.5680 h1         1 L8Y       0.041700
     39 H8           2.5780    -5.5650     0.1540 h1         1 L8Y       0.041700
     40 H9          -6.1500     3.0560    -0.0040 h4         1 L8Y       0.035100
     41 H12          1.2760     1.6600    -1.9060 ha         1 L8Y       0.127000
     42 H16          6.0360     2.1820     1.6890 hn         1 L8Y       0.316000
     43 H17          6.2750     0.6500     2.5030 hn         1 L8Y       0.316000
     44 N3          -2.5000     0.8180     0.1140 nu         1 L8Y      -0.903800
     45 C6           1.6280    -2.9410    -0.3190 c          1 L8Y       0.634700
@<TRIPOS>BOND
     1     1     8 ar  
     2     1    20 ar  
     3     1    27 1   
     4     2     3 ar  
     5     2     6 1   
     6     2    19 ar  
     7     3     4 ar  
     8     3    28 1   
     9     4     5 ar  
    10     4    29 1   
    11     5    24 ar  
    12     5    30 1   
    13     6    25 1   
    14     6    26 2   
    15     7     8 ar  
    16     7    22 ar  
    17     7    23 1   
    18     8    31 1   
    19     9    10 ar  
    20     9    14 ar  
    21     9    45 1   
    22    10    11 ar  
    23    10    32 1   
    24    11    12 ar  
    25    12    13 ar  
    26    12    44 1   
    27    13    14 ar  
    28    13    33 1   
    29    14    15 1   
    30    15    19 1   
    31    15    34 1   
    32    16    18 1   
    33    16    36 1   
    34    16    45 1   
    35    17    45 2   
    36    18    37 1   
    37    18    38 1   
    38    18    39 1   
    39    19    24 ar  
    40    20    21 ar  
    41    20    44 1   
    42    21    22 ar  
    43    22    40 1   
    44    24    41 1   
    45    25    42 1   
    46    25    43 1   
    47    35    44 1   
@<TRIPOS>SUBSTRUCTURE
     1 L8Y         1 TEMP              0 ****  ****    0 ROOT
