@<TRIPOS>MOLECULE
L90
   50    54     1     0     0
SMALL
No Charge or Current Charge


@<TRIPOS>ATOM
      1 O3          -2.9720    -2.7240    -1.3770 o          1 L90      -0.545000
      2 C16         -3.2590    -1.6420    -0.8970 c          1 L90       0.645600
      3 N4          -4.3960    -0.9810    -1.2250 ns         1 L90      -0.472500
      4 C3          -2.4540    -0.9230     0.0740 cc         1 L90      -0.386600
      5 N2          -1.2540    -1.1780     0.6850 na         1 L90       0.038500
      6 C4          -0.1880    -1.5410    -0.1240 cc         1 L90      -0.148000
      7 C5           0.9040    -0.7950     0.3130 cd         1 L90      -0.089000
      8 N3           0.3750     0.1820     1.1680 na         1 L90      -0.161500
      9 C6           1.0170     1.4840     1.4660 c3         1 L90       0.087600
     10 C7           1.0840     2.4220     0.2390 c3         1 L90      -0.102400
     11 C8           1.7440     3.7800     0.5570 c3         1 L90      -0.072400
     12 C9           1.8160     4.7140    -0.6660 c3         1 L90      -0.088100
     13 C1          -0.9370    -0.1090     1.4500 cc         1 L90       0.523000
     14 N1          -1.8470     0.8500     1.3660 nd         1 L90      -0.740000
     15 C2          -2.8330     0.2960     0.5630 cd         1 L90       0.486900
     16 N5          -4.0130     0.8800     0.1640 n          1 L90      -0.364300
     17 C18         -4.4200     2.2090     0.6740 c3         1 L90       0.100300
     18 C17         -4.8320     0.2250    -0.7680 c          1 L90       0.623000
     19 O2          -5.8840     0.6930    -1.1700 o          1 L90      -0.558000
     20 C10          2.2550    -0.7780    -0.2900 ca         1 L90       0.029000
     21 C15          3.3900    -0.6800     0.5370 ca         1 L90      -0.214900
     22 C29          3.5390    -0.6850     1.9730 cc         1 L90       0.348800
     23 N28          4.8290    -0.6610     2.3470 nd         1 L90      -0.506100
     24 N27          5.5160    -0.6510     1.1270 na         1 L90      -0.057400
     25 C14          4.6580    -0.6870     0.0490 ca         1 L90      -0.047200
     26 C13          4.9290    -0.7870    -1.3160 ca         1 L90      -0.108000
     27 C12          3.8280    -0.8860    -2.1890 ca         1 L90      -0.081000
     28 C11          2.4950    -0.8890    -1.6940 ca         1 L90      -0.072300
     29 C26          1.3590    -0.9360    -2.7130 c3         1 L90      -0.049800
     30 H1          -4.9920    -1.4390    -1.8950 hn         1 L90       0.344500
     31 H2          -0.2770    -2.2980    -0.8930 h4         1 L90       0.191000
     32 H3           0.4510     1.9810     2.2640 h1         1 L90       0.073200
     33 H4           2.0280     1.3230     1.8490 h1         1 L90       0.073200
     34 H5           1.6450     1.9320    -0.5650 hc         1 L90       0.055200
     35 H6           0.0680     2.5920    -0.1380 hc         1 L90       0.055200
     36 H7           1.1820     4.2800     1.3560 hc         1 L90       0.040700
     37 H8           2.7590     3.6110     0.9360 hc         1 L90       0.040700
     38 H9           0.8110     4.9300    -1.0490 hc         1 L90       0.035033
     39 H10          2.2910     5.6640    -0.3950 hc         1 L90       0.035033
     40 H11          2.4020     4.2550    -1.4710 hc         1 L90       0.035033
     41 H12         -4.1860     2.9770    -0.0740 h1         1 L90       0.058367
     42 H13         -5.4980     2.2240     0.8790 h1         1 L90       0.058367
     43 H14         -3.8930     2.4480     1.6060 h1         1 L90       0.058367
     44 H15          2.7970    -0.7210     2.7600 h4         1 L90       0.057800
     45 H17          5.9500    -0.8030    -1.6920 ha         1 L90       0.125000
     46 H18          4.0090    -0.9610    -3.2590 ha         1 L90       0.119000
     47 H19          0.9640    -1.9530    -2.8170 hc         1 L90       0.048033
     48 H20          0.5360    -0.2690    -2.4320 hc         1 L90       0.048033
     49 H21          1.6980    -0.6160    -3.7050 hc         1 L90       0.048033
     50 H16          6.5340    -0.6340     1.0860 hn         1 L90       0.380000
@<TRIPOS>BOND
     1     1     2 2   
     2     2     3 1   
     3     2     4 1   
     4     3    18 1   
     5     3    30 1   
     6     4     5 1   
     7     4    15 2   
     8     5     6 1   
     9     5    13 1   
    10     6     7 2   
    11     6    31 1   
    12     7     8 1   
    13     7    20 1   
    14     8     9 1   
    15     8    13 1   
    16     9    10 1   
    17     9    32 1   
    18     9    33 1   
    19    10    11 1   
    20    10    34 1   
    21    10    35 1   
    22    11    12 1   
    23    11    36 1   
    24    11    37 1   
    25    12    38 1   
    26    12    39 1   
    27    12    40 1   
    28    13    14 2   
    29    14    15 1   
    30    15    16 1   
    31    16    17 1   
    32    16    18 1   
    33    17    41 1   
    34    17    42 1   
    35    17    43 1   
    36    18    19 2   
    37    20    21 ar  
    38    20    28 ar  
    39    21    22 1   
    40    21    25 ar  
    41    22    23 2   
    42    22    44 1   
    43    23    24 1   
    44    24    25 1   
    45    24    50 1   
    46    25    26 ar  
    47    26    27 ar  
    48    26    45 1   
    49    27    28 ar  
    50    27    46 1   
    51    28    29 1   
    52    29    47 1   
    53    29    48 1   
    54    29    49 1   
@<TRIPOS>SUBSTRUCTURE
     1 L90         1 TEMP              0 ****  ****    0 ROOT
