@<TRIPOS>MOLECULE
L90
   50    54     1     0     0
SMALL
bcc


@<TRIPOS>ATOM
      1 O3          -3.2980    -2.8090    -1.2880 o          1 L90      -0.620500
      2 C16         -3.5420    -1.7550    -0.7230 c          1 L90       0.788100
      3 N4          -4.8490    -1.3580    -0.4470 ns         1 L90      -0.606500
      4 C3          -2.6280    -0.7850    -0.2620 cc         1 L90      -0.401200
      5 N2          -1.2490    -0.7160    -0.2850 na         1 L90      -0.062900
      6 C4          -0.0990    -1.3480    -0.7000 cc         1 L90      -0.115300
      7 C5           0.9300    -0.5490    -0.3140 cd         1 L90      -0.038300
      8 N3           0.4050     0.5600     0.3460 na         1 L90      -0.182900
      9 C6           1.1190     1.7470     0.7820 c3         1 L90       0.058300
     10 C7           1.1910     2.8140    -0.3000 c3         1 L90      -0.102400
     11 C8           1.9190     4.0600     0.1880 c3         1 L90      -0.072400
     12 C9           1.9860     5.1470    -0.8750 c3         1 L90      -0.088100
     13 C1          -0.9320     0.4390     0.3320 cc         1 L90       0.523000
     14 N1          -1.9730     1.1500     0.7560 nd         1 L90      -0.740000
     15 C2          -3.0090     0.3820     0.3860 cd         1 L90       0.552200
     16 N5          -4.3290     0.6690     0.5990 n          1 L90      -0.431300
     17 C18         -4.7440     1.8930     1.2660 c3         1 L90       0.100300
     18 C17         -5.2950    -0.2090     0.1710 c          1 L90       0.832500
     19 O2          -6.4810     0.0090     0.3310 o          1 L90      -0.633500
     20 C10          2.3720    -0.7590    -0.4720 ca         1 L90       0.029000
     21 C15          3.1580    -1.0400     0.6630 ca         1 L90      -0.214900
     22 C29          2.9080    -1.1860     2.0530 cc         1 L90       0.348800
     23 N28          4.0180    -1.4570     2.6960 nd         1 L90      -0.506100
     24 N27          4.9910    -1.5000     1.7880 na         1 L90      -0.007100
     25 C14          4.5370    -1.2570     0.5360 ca         1 L90      -0.047200
     26 C13          5.1760    -1.2090    -0.7060 ca         1 L90      -0.126000
     27 C12          4.3860    -0.9360    -1.7970 ca         1 L90      -0.099000
     28 C11          2.9920    -0.7040    -1.7100 ca         1 L90      -0.072300
     29 C26          2.2240    -0.4090    -2.9680 c3         1 L90      -0.049800
     30 H1          -5.5790    -2.0000    -0.7320 hn         1 L90       0.344500
     31 H2          -0.0870    -2.2960    -1.2080 h4         1 L90       0.209000
     32 H3           0.6120     2.1270     1.6690 h1         1 L90       0.073200
     33 H4           2.1180     1.4440     1.0920 h1         1 L90       0.073200
     34 H5           1.7020     2.4090    -1.1790 hc         1 L90       0.055200
     35 H6           0.1780     3.0790    -0.6170 hc         1 L90       0.055200
     36 H7           1.4160     4.4470     1.0800 hc         1 L90       0.040700
     37 H8           2.9310     3.7910     0.5010 hc         1 L90       0.040700
     38 H9           0.9870     5.4610    -1.1840 hc         1 L90       0.035033
     39 H10          2.5110     6.0290    -0.5080 hc         1 L90       0.035033
     40 H11          2.5120     4.7970    -1.7650 hc         1 L90       0.035033
     41 H12         -5.3150     2.5260     0.5910 h1         1 L90       0.058367
     42 H13         -5.3490     1.6640     2.1400 h1         1 L90       0.058367
     43 H14         -3.8570     2.4290     1.5850 h1         1 L90       0.058367
     44 H15          1.9720    -1.1020     2.5840 h4         1 L90       0.057800
     45 H17          6.2400    -1.3750    -0.8110 ha         1 L90       0.143000
     46 H18          4.8500    -0.8860    -2.7750 ha         1 L90       0.137000
     47 H19          1.7300    -1.3030    -3.3530 hc         1 L90       0.048033
     48 H20          1.4500     0.3400    -2.8070 hc         1 L90       0.048033
     49 H21          2.8880    -0.0430    -3.7500 hc         1 L90       0.048033
     50 H16          5.9350    -1.6990     2.0760 hn         1 L90       0.329700
@<TRIPOS>BOND
     1     1     2 2   
     2     2     3 1   
     3     2     4 1   
     4     3    18 1   
     5     3    30 1   
     6     4     5 1   
     7     4    15 2   
     8     5     6 1   
     9     5    13 1   
    10     6     7 2   
    11     6    31 1   
    12     7     8 1   
    13     7    20 1   
    14     8     9 1   
    15     8    13 1   
    16     9    10 1   
    17     9    32 1   
    18     9    33 1   
    19    10    11 1   
    20    10    34 1   
    21    10    35 1   
    22    11    12 1   
    23    11    36 1   
    24    11    37 1   
    25    12    38 1   
    26    12    39 1   
    27    12    40 1   
    28    13    14 2   
    29    14    15 1   
    30    15    16 1   
    31    16    17 1   
    32    16    18 1   
    33    17    41 1   
    34    17    42 1   
    35    17    43 1   
    36    18    19 2   
    37    20    21 ar  
    38    20    28 ar  
    39    21    22 1   
    40    21    25 ar  
    41    22    23 2   
    42    22    44 1   
    43    23    24 1   
    44    24    25 1   
    45    24    50 1   
    46    25    26 ar  
    47    26    27 ar  
    48    26    45 1   
    49    27    28 ar  
    50    27    46 1   
    51    28    29 1   
    52    29    47 1   
    53    29    48 1   
    54    29    49 1   
@<TRIPOS>SUBSTRUCTURE
     1 L90         1 TEMP              0 ****  ****    0 ROOT
