@<TRIPOS>MOLECULE
L91
   47    49     1     0     0
SMALL
bcc


@<TRIPOS>ATOM
      1 C13         -4.7870    -0.1790     0.2920 ca         1 L91      -0.233300
      2 C18          3.5080     1.2740    -0.9800 ca         1 L91      -0.279500
      3 C17          4.0260     2.2590    -1.8120 ca         1 L91      -0.021000
      4 C16          3.4250     2.5130    -3.0330 ca         1 L91      -0.158000
      5 C15          2.3140     1.7740    -3.4170 ca         1 L91      -0.061000
      6 C19          3.1260     1.4700     1.8000 c3         1 L91      -0.222300
      7 C11         -6.7110     1.1800    -0.0250 ca         1 L91      -0.019400
      8 C12         -6.1540    -0.0060     0.4080 ca         1 L91      -0.110000
      9 C1           0.2140    -1.9820     0.3460 ca         1 L91      -0.386900
     10 C2          -1.1430    -2.1630     0.5630 ca         1 L91       0.504200
     11 N1          -2.0960    -1.2830     0.3060 nb         1 L91      -0.770000
     12 C3          -1.7170    -0.1070    -0.1900 ca         1 L91       0.739200
     13 C4          -0.3870     0.1980    -0.4810 ca         1 L91      -0.409300
     14 C5           0.6030    -0.7510    -0.2540 ca         1 L91       0.304600
     15 N2           0.8280    -3.9790     1.5550 ns         1 L91      -0.562900
     16 O1           2.3320    -3.0440     0.1850 o          1 L91      -0.618100
     17 C7           1.7020    -5.0690     1.9220 c3         1 L91       0.093300
     18 N3           1.9150    -0.5050    -0.5280 nu         1 L91      -0.682000
     19 C8           2.3940     0.5160    -1.3570 ca         1 L91       0.238600
     20 C9          -4.0320     0.8620    -0.2600 ca         1 L91       0.657200
     21 N5          -4.5920     1.9970    -0.6700 nb         1 L91      -0.725000
     22 C10         -5.9010     2.1600    -0.5580 ca         1 L91       0.410200
     23 F1          -8.0340     1.3850     0.0720 f          1 L91      -0.134900
     24 C14          1.8090     0.7810    -2.5940 ca         1 L91      -0.175000
     25 O2           4.5940    -0.4420     0.7140 o          1 L91      -0.591800
     26 O3           5.4510     1.9110     0.6630 o          1 L91      -0.591800
     27 H11         -4.3190    -1.0910     0.6210 ha         1 L91       0.182000
     28 H15          4.8910     2.8290    -1.5060 ha         1 L91       0.166000
     29 H14          3.8260     3.2800    -3.6800 ha         1 L91       0.143000
     30 H13          1.8470     1.9570    -4.3750 ha         1 L91       0.139000
     31 H17          2.2480     0.8330     1.7360 h1         1 L91       0.104033
     32 H18          3.6020     1.3450     2.7720 h1         1 L91       0.104033
     33 H16          2.8580     2.5120     1.6470 h1         1 L91       0.104033
     34 H10         -6.7700    -0.7890     0.8310 ha         1 L91       0.156000
     35 H1          -1.5050    -3.1090     0.9530 h4         1 L91       0.014100
     36 H2          -0.1370     1.1720    -0.8780 ha         1 L91       0.152000
     37 H3          -0.0320    -3.8830     2.0670 hn         1 L91       0.315500
     38 H6           1.1460    -5.7480     2.5610 h1         1 L91       0.044033
     39 H5           2.0370    -5.6200     1.0440 h1         1 L91       0.044033
     40 H4           2.5820    -4.7240     2.4670 h1         1 L91       0.044033
     41 H7           2.5440    -1.2740    -0.3070 hn         1 L91       0.513800
     42 H8          -2.3170     1.7100    -0.8420 hn         1 L91       0.457800
     43 H9          -6.3180     3.1000    -0.9040 h4         1 L91       0.037100
     44 H12          0.9600     0.1940    -2.9190 ha         1 L91       0.148000
     45 N4          -2.6600     0.8500    -0.4410 nu         1 L91      -0.847600
     46 C6           1.2040    -3.0340     0.6840 c          1 L91       0.693700
     47 S1           4.3210     0.9870     0.5770 sy         1 L91       1.089300
@<TRIPOS>BOND
     1     1     8 ar  
     2     1    20 ar  
     3     1    27 1   
     4     2     3 ar  
     5     2    19 ar  
     6     2    47 1   
     7     3     4 ar  
     8     3    28 1   
     9     4     5 ar  
    10     4    29 1   
    11     5    24 ar  
    12     5    30 1   
    13     6    31 1   
    14     6    32 1   
    15     6    33 1   
    16     6    47 1   
    17     7     8 ar  
    18     7    22 ar  
    19     7    23 1   
    20     8    34 1   
    21     9    10 ar  
    22     9    14 ar  
    23     9    46 1   
    24    10    11 ar  
    25    10    35 1   
    26    11    12 ar  
    27    12    13 ar  
    28    12    45 1   
    29    13    14 ar  
    30    13    36 1   
    31    14    18 1   
    32    15    17 1   
    33    15    37 1   
    34    15    46 1   
    35    16    46 2   
    36    17    38 1   
    37    17    39 1   
    38    17    40 1   
    39    18    19 1   
    40    18    41 1   
    41    19    24 ar  
    42    20    21 ar  
    43    20    45 1   
    44    21    22 ar  
    45    22    43 1   
    46    24    44 1   
    47    25    47 2   
    48    26    47 2   
    49    42    45 1   
@<TRIPOS>SUBSTRUCTURE
     1 L91         1 TEMP              0 ****  ****    0 ROOT
