@<TRIPOS>MOLECULE
L91
   47    49     1     0     0
SMALL
No Charge or Current Charge


@<TRIPOS>ATOM
      1 C13         -4.9660    -0.3400    -0.0360 ca         1 L91      -0.150000
      2 C18          3.6230     1.2320    -1.0060 ca         1 L91      -0.279500
      3 C17          4.1590     2.1180    -1.9680 ca         1 L91      -0.003000
      4 C16          3.5150     2.2980    -3.2030 ca         1 L91      -0.140000
      5 C15          2.3340     1.6000    -3.4860 ca         1 L91      -0.043000
      6 C19          3.3900     1.9410     1.7160 c3         1 L91      -0.333100
      7 C11         -6.8450     1.1620    -0.0950 ca         1 L91       0.081000
      8 C12         -6.3610    -0.1520     0.0000 ca         1 L91      -0.092000
      9 C1           0.2280    -1.9090     0.5320 ca         1 L91      -0.321600
     10 C2          -1.1260    -2.1390     0.8130 ca         1 L91       0.438900
     11 N1          -2.1040    -1.2540     0.5510 nb         1 L91      -0.770000
     12 C3          -1.7610    -0.1010    -0.0050 ca         1 L91       0.673900
     13 C4          -0.4570     0.2370    -0.3180 ca         1 L91      -0.326000
     14 C5           0.5530    -0.6830    -0.0620 ca         1 L91       0.443000
     15 N2           0.7920    -4.1600     1.3390 ns         1 L91      -0.495900
     16 O1           2.4540    -2.7590     0.7390 o          1 L91      -0.618100
     17 C7           1.6580    -5.2800     1.7190 c3         1 L91       0.093300
     18 N3           1.8580    -0.3440    -0.3730 nu         1 L91      -1.014000
     19 C8           2.4280     0.5390    -1.2840 ca         1 L91       0.377000
     20 C9          -4.1280     0.7870    -0.1550 ca         1 L91       0.591900
     21 N5          -4.5790     2.0410    -0.2620 nb         1 L91      -0.725000
     22 C10         -5.9250     2.2230    -0.2270 ca         1 L91       0.344900
     23 F1          -8.1770     1.4000    -0.0670 f          1 L91      -0.170000
     24 C14          1.7980     0.7260    -2.5280 ca         1 L91      -0.157000
     25 O2           4.4260    -0.3490     0.9830 o          1 L91      -0.521000
     26 O3           5.7280     1.8010     0.5310 o          1 L91      -0.521000
     27 H11         -4.5550    -1.3410     0.0160 ha         1 L91       0.164000
     28 H15          5.0730     2.6750    -1.7690 ha         1 L91       0.148000
     29 H14          3.9340     2.9800    -3.9400 ha         1 L91       0.125000
     30 H13          1.8360     1.7330    -4.4450 ha         1 L91       0.121000
     31 H17          2.4070     1.4610     1.7050 h1         1 L91       0.104033
     32 H18          3.8370     1.8860     2.7140 h1         1 L91       0.104033
     33 H16          3.3170     2.9810     1.3810 h1         1 L91       0.104033
     34 H10         -7.0420    -0.9940     0.0930 ha         1 L91       0.138000
     35 H1          -1.4650    -3.0640     1.2760 h4         1 L91       0.014100
     36 H2          -0.2330     1.2060    -0.7450 ha         1 L91       0.134000
     37 H3          -0.2090    -4.2820     1.4210 hn         1 L91       0.315500
     38 H6           1.0420    -6.1210     2.0630 h1         1 L91       0.044033
     39 H5           2.2520    -5.5990     0.8530 h1         1 L91       0.044033
     40 H4           2.3300    -4.9700     2.5300 h1         1 L91       0.044033
     41 H7           2.5350    -0.9710     0.0870 hn         1 L91       0.569000
     42 H8          -2.4360     1.7200    -0.4550 hn         1 L91       0.513000
     43 H9          -6.2770     3.2510    -0.3090 h4         1 L91       0.037100
     44 H12          0.8900     0.1780    -2.7620 ha         1 L91       0.130000
     45 N4          -2.7680     0.7940    -0.2290 nu         1 L91      -0.902800
     46 C6           1.2540    -2.9530     0.8640 c          1 L91       0.626700
     47 S1           4.4590     1.0610     0.5770 sy         1 L91       1.058500
@<TRIPOS>BOND
     1     1     8 ar  
     2     1    20 ar  
     3     1    27 1   
     4     2     3 ar  
     5     2    19 ar  
     6     2    47 1   
     7     3     4 ar  
     8     3    28 1   
     9     4     5 ar  
    10     4    29 1   
    11     5    24 ar  
    12     5    30 1   
    13     6    31 1   
    14     6    32 1   
    15     6    33 1   
    16     6    47 1   
    17     7     8 ar  
    18     7    22 ar  
    19     7    23 1   
    20     8    34 1   
    21     9    10 ar  
    22     9    14 ar  
    23     9    46 1   
    24    10    11 ar  
    25    10    35 1   
    26    11    12 ar  
    27    12    13 ar  
    28    12    45 1   
    29    13    14 ar  
    30    13    36 1   
    31    14    18 1   
    32    15    17 1   
    33    15    37 1   
    34    15    46 1   
    35    16    46 2   
    36    17    38 1   
    37    17    39 1   
    38    17    40 1   
    39    18    19 1   
    40    18    41 1   
    41    19    24 ar  
    42    20    21 ar  
    43    20    45 1   
    44    21    22 ar  
    45    22    43 1   
    46    24    44 1   
    47    25    47 2   
    48    26    47 2   
    49    42    45 1   
@<TRIPOS>SUBSTRUCTURE
     1 L91         1 TEMP              0 ****  ****    0 ROOT
