@<TRIPOS>MOLECULE
L92
   56    59     1     0     0
SMALL
bcc


@<TRIPOS>ATOM
      1 O2           6.0940     1.2770    -1.7230 o          1 L92      -0.815800
      2 C1           6.0080     0.8830    -0.5460 c          1 L92       0.931600
      3 O1           6.2340     1.5380     0.4890 o          1 L92      -0.815800
      4 C2           5.5910    -0.5980    -0.3430 c3         1 L92      -0.099000
      5 N1           6.7480    -1.3970     0.0380 na         1 L92       0.002900
      6 C13          7.2380    -2.4440    -0.6830 cc         1 L92      -0.159300
      7 C12          8.3130    -2.9730    -0.0100 cd         1 L92      -0.240000
      8 C11          8.4730    -2.2080     1.1720 cd         1 L92      -0.240000
      9 C10          7.4930    -1.2460     1.1690 cc         1 L92      -0.159300
     10 C3           4.4650    -0.7510     0.6830 c3         1 L92      -0.031100
     11 C4           3.2120    -0.0580     0.2270 ca         1 L92      -0.043300
     12 C9           2.3910    -0.6440    -0.7350 ca         1 L92      -0.112500
     13 C8           1.2530     0.0010    -1.1940 ca         1 L92      -0.129500
     14 C7           0.8920     1.2560    -0.7070 ca         1 L92      -0.100300
     15 C6           1.7100     1.8380     0.2570 ca         1 L92      -0.129500
     16 C5           2.8530     1.1950     0.7140 ca         1 L92      -0.112500
     17 C14         -0.3600     1.9370    -1.1830 c3         1 L92      -0.022100
     18 C15         -1.6150     1.4030    -0.4920 c3         1 L92      -0.072400
     19 C16         -2.8760     2.1250    -0.9670 c3         1 L92      -0.099700
     20 C17         -4.1160     1.5820    -0.3490 cc         1 L92       0.256300
     21 C19         -4.8940     2.1070     0.6270 cd         1 L92       0.149700
     22 C26         -4.8610     3.3530     1.4200 c3         1 L92      -0.113400
     23 O3          -5.8930     1.2120     0.8650 os         1 L92      -0.353800
     24 C18         -5.6760     0.1890     0.0280 cd         1 L92       0.538900
     25 N2          -4.6340     0.3550    -0.7140 nc         1 L92      -0.671000
     26 C20         -6.5960    -0.9390     0.0410 ca         1 L92      -0.125500
     27 C25         -6.3780    -2.0050    -0.8340 ca         1 L92      -0.092000
     28 C24         -7.2380    -3.0900    -0.8410 ca         1 L92      -0.138500
     29 C23         -8.3260    -3.1260     0.0240 ca         1 L92      -0.117000
     30 C22         -8.5480    -2.0670     0.8940 ca         1 L92      -0.138500
     31 C21         -7.6910    -0.9770     0.9060 ca         1 L92      -0.092000
     32 H2           5.2520    -1.0030    -1.2980 h1         1 L92       0.053700
     33 H13          6.7830    -2.7320    -1.6170 h4         1 L92       0.162500
     34 H12          8.9120    -3.8100    -0.3340 ha         1 L92       0.123000
     35 H11          9.2210    -2.3440     1.9390 ha         1 L92       0.123000
     36 H10          7.2800    -0.4650     1.8780 h4         1 L92       0.162500
     37 H31          4.2680    -1.8170     0.8270 hc         1 L92       0.044700
     38 H32          4.7900    -0.3500     1.6440 hc         1 L92       0.044700
     39 H9           2.6460    -1.6200    -1.1330 ha         1 L92       0.136500
     40 H8           0.6340    -0.4780    -1.9450 ha         1 L92       0.114500
     41 H6           1.4540     2.8140     0.6550 ha         1 L92       0.114500
     42 H5           3.4790     1.6780     1.4530 ha         1 L92       0.136500
     43 H141        -0.2840     3.0130    -1.0070 hc         1 L92       0.039200
     44 H142        -0.4660     1.8040    -2.2630 hc         1 L92       0.039200
     45 H151        -1.7120     0.3310    -0.6840 hc         1 L92       0.049700
     46 H152        -1.5170     1.5180     0.5910 hc         1 L92       0.049700
     47 H161        -2.7900     3.1910    -0.7430 hc         1 L92       0.049200
     48 H162        -2.9530     2.0440    -2.0560 hc         1 L92       0.049200
     49 H261        -5.7860     3.9240     1.3200 hc         1 L92       0.054700
     50 H262        -4.7070     3.1530     2.4820 hc         1 L92       0.054700
     51 H263        -4.0420     3.9840     1.0790 hc         1 L92       0.054700
     52 H25         -5.5310    -1.9780    -1.5070 ha         1 L92       0.149500
     53 H24         -7.0580    -3.9100    -1.5230 ha         1 L92       0.131500
     54 H23         -8.9970    -3.9750     0.0180 ha         1 L92       0.128000
     55 H22         -9.3940    -2.0880     1.5690 ha         1 L92       0.131500
     56 H21         -7.8820    -0.1630     1.5930 ha         1 L92       0.149500
@<TRIPOS>BOND
     1     1     2 1   
     2     2     3 1   
     3     2     4 1   
     4     4     5 1   
     5     4    10 1   
     6     4    32 1   
     7     5     6 1   
     8     5     9 1   
     9     6     7 2   
    10     6    33 1   
    11     7     8 1   
    12     7    34 1   
    13     8     9 2   
    14     8    35 1   
    15     9    36 1   
    16    10    11 1   
    17    10    37 1   
    18    10    38 1   
    19    11    12 ar  
    20    11    16 ar  
    21    12    13 ar  
    22    12    39 1   
    23    13    14 ar  
    24    13    40 1   
    25    14    15 ar  
    26    14    17 1   
    27    15    16 ar  
    28    15    41 1   
    29    16    42 1   
    30    17    18 1   
    31    17    43 1   
    32    17    44 1   
    33    18    19 1   
    34    18    45 1   
    35    18    46 1   
    36    19    20 1   
    37    19    47 1   
    38    19    48 1   
    39    20    21 2   
    40    20    25 1   
    41    21    22 1   
    42    21    23 1   
    43    22    49 1   
    44    22    50 1   
    45    22    51 1   
    46    23    24 1   
    47    24    25 2   
    48    24    26 1   
    49    26    27 ar  
    50    26    31 ar  
    51    27    28 ar  
    52    27    52 1   
    53    28    29 ar  
    54    28    53 1   
    55    29    30 ar  
    56    29    54 1   
    57    30    31 ar  
    58    30    55 1   
    59    31    56 1   
@<TRIPOS>SUBSTRUCTURE
     1 L92         1 TEMP              0 ****  ****    0 ROOT
