@<TRIPOS>MOLECULE
L92
   56    59     1     0     0
SMALL
No Charge or Current Charge


@<TRIPOS>ATOM
      1 O2           6.4090     1.4760    -1.5210 o          1 L92      -0.710500
      2 C1           6.1680     1.0510    -0.3990 c          1 L92       0.721000
      3 O1           6.2370     1.7470     0.6060 o          1 L92      -0.710500
      4 C2           5.7630    -0.4340    -0.2630 c3         1 L92      -0.069700
      5 N1           6.9230    -1.2610     0.1120 na         1 L92       0.075000
      6 C13          7.4800    -2.2600    -0.6920 cc         1 L92      -0.192000
      7 C12          8.5180    -2.7890     0.0240 cd         1 L92      -0.222000
      8 C11          8.6020    -2.1270     1.2610 cd         1 L92      -0.222000
      9 C10          7.6170    -1.1810     1.3230 cc         1 L92      -0.192000
     10 C3           4.5520    -0.6580     0.6810 c3         1 L92      -0.031100
     11 C4           3.2740    -0.0170     0.1530 ca         1 L92      -0.043300
     12 C9           2.5810    -0.6030    -0.9230 ca         1 L92      -0.094500
     13 C8           1.4020    -0.0160    -1.4130 ca         1 L92      -0.111500
     14 C7           0.9020     1.1650    -0.8330 ca         1 L92      -0.100300
     15 C6           1.5930     1.7500     0.2440 ca         1 L92      -0.111500
     16 C5           2.7730     1.1630     0.7340 ca         1 L92      -0.094500
     17 C14         -0.3790     1.7980    -1.3590 c3         1 L92      -0.022100
     18 C15         -1.6300     1.2630    -0.6320 c3         1 L92      -0.072400
     19 C16         -2.9460     1.8930    -1.1380 c3         1 L92      -0.099700
     20 C17         -4.1590     1.3770    -0.4110 cc         1 L92       0.256300
     21 C19         -4.7690     1.8720     0.7100 cd         1 L92       0.105300
     22 C26         -4.4310     3.0640     1.5640 c3         1 L92      -0.113400
     23 O3          -5.8400     1.1070     1.0430 os         1 L92      -0.265000
     24 C18         -5.8130     0.1520     0.0610 cd         1 L92       0.494500
     25 N2          -4.8340     0.2670    -0.8300 nc         1 L92      -0.671000
     26 C20         -6.8500    -0.9010     0.0740 ca         1 L92      -0.125500
     27 C25         -6.8610    -1.9080    -0.9180 ca         1 L92      -0.074000
     28 C24         -7.8460    -2.9120    -0.9080 ca         1 L92      -0.120500
     29 C23         -8.8320    -2.9230     0.0910 ca         1 L92      -0.099000
     30 C22         -8.8320    -1.9290     1.0820 ca         1 L92      -0.120500
     31 C21         -7.8490    -0.9240     1.0750 ca         1 L92      -0.074000
     32 H2           5.4540    -0.7610    -1.2630 h1         1 L92       0.053700
     33 H13          7.0990    -2.5000    -1.6770 h4         1 L92       0.144500
     34 H12          9.1690    -3.5920    -0.3110 ha         1 L92       0.105000
     35 H11          9.3290    -2.3310     2.0420 ha         1 L92       0.105000
     36 H10          7.3560    -0.4740     2.1020 h4         1 L92       0.144500
     37 H31          4.3900    -1.7370     0.7930 hc         1 L92       0.044700
     38 H32          4.7890    -0.2850     1.6850 hc         1 L92       0.044700
     39 H9           2.9560    -1.5170    -1.3800 ha         1 L92       0.118500
     40 H8           0.8750    -0.4810    -2.2430 ha         1 L92       0.096500
     41 H6           1.2170     2.6610     0.7040 ha         1 L92       0.096500
     42 H5           3.2980     1.6280     1.5660 ha         1 L92       0.118500
     43 H141        -0.3340     2.8890    -1.2440 hc         1 L92       0.039200
     44 H142        -0.4780     1.6080    -2.4350 hc         1 L92       0.039200
     45 H151        -1.6800     0.1740    -0.7580 hc         1 L92       0.049700
     46 H152        -1.5290     1.4550     0.4430 hc         1 L92       0.049700
     47 H161        -2.8910     2.9830    -1.0250 hc         1 L92       0.049200
     48 H162        -3.0500     1.6980    -2.2130 hc         1 L92       0.049200
     49 H261        -4.6340     3.9980     1.0270 hc         1 L92       0.054700
     50 H262        -5.0200     3.0720     2.4890 hc         1 L92       0.054700
     51 H263        -3.3700     3.0580     1.8410 hc         1 L92       0.054700
     52 H25         -6.1060    -1.9170    -1.7010 ha         1 L92       0.131500
     53 H24         -7.8440    -3.6810    -1.6770 ha         1 L92       0.113500
     54 H23         -9.5940    -3.7000     0.0970 ha         1 L92       0.110000
     55 H22         -9.5950    -1.9360     1.8570 ha         1 L92       0.113500
     56 H21         -7.8690    -0.1640     1.8540 ha         1 L92       0.131500
@<TRIPOS>BOND
     1     1     2 1   
     2     2     3 1   
     3     2     4 1   
     4     4     5 1   
     5     4    10 1   
     6     4    32 1   
     7     5     6 1   
     8     5     9 1   
     9     6     7 2   
    10     6    33 1   
    11     7     8 1   
    12     7    34 1   
    13     8     9 2   
    14     8    35 1   
    15     9    36 1   
    16    10    11 1   
    17    10    37 1   
    18    10    38 1   
    19    11    12 ar  
    20    11    16 ar  
    21    12    13 ar  
    22    12    39 1   
    23    13    14 ar  
    24    13    40 1   
    25    14    15 ar  
    26    14    17 1   
    27    15    16 ar  
    28    15    41 1   
    29    16    42 1   
    30    17    18 1   
    31    17    43 1   
    32    17    44 1   
    33    18    19 1   
    34    18    45 1   
    35    18    46 1   
    36    19    20 1   
    37    19    47 1   
    38    19    48 1   
    39    20    21 2   
    40    20    25 1   
    41    21    22 1   
    42    21    23 1   
    43    22    49 1   
    44    22    50 1   
    45    22    51 1   
    46    23    24 1   
    47    24    25 2   
    48    24    26 1   
    49    26    27 ar  
    50    26    31 ar  
    51    27    28 ar  
    52    27    52 1   
    53    28    29 ar  
    54    28    53 1   
    55    29    30 ar  
    56    29    54 1   
    57    30    31 ar  
    58    30    55 1   
    59    31    56 1   
@<TRIPOS>SUBSTRUCTURE
     1 L92         1 TEMP              0 ****  ****    0 ROOT
