@<TRIPOS>MOLECULE
L93
   46    48     1     0     0
SMALL
No Charge or Current Charge


@<TRIPOS>ATOM
      1 N1           5.5000     1.7420    18.7480 ns         1 L93      -0.375100
      2 C4          13.5050    -0.0520    22.6000 ca         1 L93      -0.132000
      3 C5          12.6780    -1.0990    22.1590 ca         1 L93      -0.088000
      4 C6          11.2840    -0.9330    22.1240 ca         1 L93       0.068100
      5 C7           9.5660    -2.6200    22.5660 c3         1 L93       0.154300
      6 C8          10.3360    -3.6460    23.4220 c3         1 L93      -0.112100
      7 C10          6.7690    -1.4110    21.4710 c          1 L93       0.598300
      8 C13          6.3980     0.8410    18.2720 c          1 L93       0.554200
      9 C15          4.0170     2.7770    20.3420 ca         1 L93      -0.145000
     10 C17          3.7730     1.8430    22.5560 ca         1 L93       0.128000
     11 N            7.7120    -2.2590    20.9240 ns         1 L93      -0.491900
     12 C1          10.7030     0.3070    22.5020 ca         1 L93       0.116100
     13 C11          6.2840    -0.3000    20.5620 cc         1 L93      -0.039400
     14 C18          4.6870     0.8260    22.2370 ca         1 L93      -0.077000
     15 O1          10.5120    -1.9870    21.6810 os         1 L93      -0.369100
     16 O3           6.8430     0.9010    17.1380 o          1 L93      -0.546000
     17 C2          11.5450     1.3540    22.9440 ca         1 L93      -0.181000
     18 C16          3.4330     2.8210    21.6150 ca         1 L93      -0.090000
     19 F            3.2140     1.8790    23.7860 f          1 L93      -0.178000
     20 C9           8.4650    -3.2650    21.6890 c3         1 L93       0.106000
     21 C12          6.7720    -0.1940    19.2500 cd         1 L93      -0.262200
     22 C19          5.2960     0.7570    20.9540 ca         1 L93      -0.091800
     23 C14          4.9330     1.7600    20.0220 ca         1 L93       0.080600
     24 O            9.3310     0.4710    22.4010 os         1 L93      -0.367100
     25 O2           6.3940    -1.6000    22.6190 o          1 L93      -0.601100
     26 C3          12.9380     1.1700    22.9950 ca         1 L93      -0.077000
     27 H1           5.2190     2.4700    18.1030 hn         1 L93       0.330500
     28 H3          13.1170    -2.0460    21.8530 ha         1 L93       0.128000
     29 H4           9.0940    -1.8890    23.2350 h1         1 L93       0.052700
     30 H5           9.6490    -4.1800    24.0880 hc         1 L93       0.048367
     31 H6          10.8430    -4.3820    22.7860 hc         1 L93       0.048367
     32 H7          11.0880    -3.1440    24.0420 hc         1 L93       0.048367
     33 H8           3.7580     3.5340    19.6050 ha         1 L93       0.125000
     34 H9           8.0190    -2.0630    19.9820 hn         1 L93       0.350500
     35 H10          4.8970     0.1100    23.0190 ha         1 L93       0.155000
     36 H11         11.1410     2.3160    23.2430 ha         1 L93       0.120000
     37 H12          2.7240     3.6040    21.8710 ha         1 L93       0.138000
     38 H13          7.7690    -3.8240    22.3280 h1         1 L93       0.064200
     39 H14          8.9230    -3.9760    20.9900 h1         1 L93       0.064200
     40 H15          7.4880    -0.8800    18.8200 ha         1 L93       0.221000
     41 H16          7.5880     1.6100    22.5830 h1         1 L93       0.046700
     42 H17          8.8410     1.9680    23.7870 h1         1 L93       0.046700
     43 H18          9.0300     2.5250    22.1020 h1         1 L93       0.046700
     44 H19         13.5810     1.9800    23.3350 ha         1 L93       0.117000
     45 H2          14.5840    -0.1880    22.6340 ha         1 L93       0.121000
     46 C            8.6700     1.7050    22.7350 c3         1 L93       0.147900
@<TRIPOS>BOND
     1     1     8 1   
     2     1    23 1   
     3     1    27 1   
     4     2     3 ar  
     5     2    26 ar  
     6     2    45 1   
     7     3     4 ar  
     8     3    28 1   
     9     4    12 ar  
    10     4    15 1   
    11     5     6 1   
    12     5    15 1   
    13     5    20 1   
    14     5    29 1   
    15     6    30 1   
    16     6    31 1   
    17     6    32 1   
    18     7    11 1   
    19     7    13 1   
    20     7    25 2   
    21     8    16 2   
    22     8    21 1   
    23     9    18 ar  
    24     9    23 ar  
    25     9    33 1   
    26    10    14 ar  
    27    10    18 ar  
    28    10    19 1   
    29    11    20 1   
    30    11    34 1   
    31    12    17 ar  
    32    12    24 1   
    33    13    21 2   
    34    13    22 1   
    35    14    22 ar  
    36    14    35 1   
    37    17    26 ar  
    38    17    36 1   
    39    18    37 1   
    40    20    38 1   
    41    20    39 1   
    42    21    40 1   
    43    22    23 ar  
    44    24    46 1   
    45    26    44 1   
    46    41    46 1   
    47    42    46 1   
    48    43    46 1   
@<TRIPOS>SUBSTRUCTURE
     1 L93         1 TEMP              0 ****  ****    0 ROOT
