@<TRIPOS>MOLECULE
L93
   46    48     1     0     0
SMALL
abcg2


@<TRIPOS>ATOM
      1 N1           5.4920     2.0520    19.0750 ns         1 L93      -0.375100
      2 C4          13.6150    -0.3890    22.7860 ca         1 L93      -0.132000
      3 C5          12.6800    -1.3830    22.5030 ca         1 L93      -0.088000
      4 C6          11.3770    -1.0490    22.1680 ca         1 L93       0.068100
      5 C7           9.5530    -2.4310    22.8920 c3         1 L93       0.154300
      6 C8          10.1410    -3.5710    23.7010 c3         1 L93      -0.112100
      7 C10          6.4530    -1.5700    21.0920 c          1 L93       0.598300
      8 C13          6.4670     1.2650    18.5140 c          1 L93       0.554200
      9 C15          3.8400     2.6640    20.7190 ca         1 L93      -0.145000
     10 C17          3.4470     1.1950    22.5590 ca         1 L93       0.128000
     11 N            7.7200    -1.6610    21.5030 ns         1 L93      -0.491900
     12 C1          10.9930     0.3030    22.0990 ca         1 L93       0.116100
     13 C11          6.1140    -0.2790    20.3930 cc         1 L93      -0.039400
     14 C18          4.3880     0.3010    22.1190 ca         1 L93      -0.077000
     15 O1          10.4710    -2.0280    21.8380 os         1 L93      -0.369100
     16 O3           7.0290     1.5950    17.4650 o          1 L93      -0.546000
     17 C2          11.9270     1.2940    22.3880 ca         1 L93      -0.181000
     18 C16          3.1560     2.3770    21.8830 ca         1 L93      -0.090000
     19 F            2.7630     0.9210    23.6990 f          1 L93      -0.178000
     20 C9           8.2610    -2.8150    22.1970 c3         1 L93       0.106000
     21 C12          6.7660     0.0520    19.2540 cd         1 L93      -0.262200
     22 C19          5.0890     0.5790    20.9320 ca         1 L93      -0.091800
     23 C14          4.8040     1.7720    20.2350 ca         1 L93       0.080600
     24 O            9.7030     0.5440    21.7360 os         1 L93      -0.367100
     25 O2           5.6030    -2.4480    21.2530 o          1 L93      -0.601100
     26 C3          13.2320     0.9440    22.7320 ca         1 L93      -0.077000
     27 H1           5.2730     2.9090    18.5810 hn         1 L93       0.330500
     28 H3          12.9520    -2.4300    22.5330 ha         1 L93       0.128000
     29 H4           9.3720    -1.5640    23.5330 h1         1 L93       0.052700
     30 H5           9.4470    -3.8690    24.4890 hc         1 L93       0.048367
     31 H6          10.3350    -4.4330    23.0590 hc         1 L93       0.048367
     32 H7          11.0760    -3.2630    24.1670 hc         1 L93       0.048367
     33 H8           3.6370     3.5770    20.1740 ha         1 L93       0.125000
     34 H9           8.3580    -0.8920    21.3280 hn         1 L93       0.350500
     35 H10          4.5760    -0.6060    22.6730 ha         1 L93       0.155000
     36 H11         11.6500     2.3370    22.3400 ha         1 L93       0.120000
     37 H12          2.4060     3.0520    22.2720 ha         1 L93       0.138000
     38 H13          7.5370    -3.1710    22.9310 h1         1 L93       0.064200
     39 H14          8.4540    -3.6310    21.4940 h1         1 L93       0.064200
     40 H15          7.5420    -0.5800    18.8450 ha         1 L93       0.221000
     41 H16          8.2110     1.8510    21.3660 h1         1 L93       0.046700
     42 H17          9.3440     2.3920    22.6310 h1         1 L93       0.046700
     43 H18          9.8250     2.4550    20.9120 h1         1 L93       0.046700
     44 H19         13.9470     1.7260    22.9510 ha         1 L93       0.117000
     45 H2          14.6300    -0.6600    23.0450 ha         1 L93       0.121000
     46 C            9.2560     1.9000    21.6600 c3         1 L93       0.147900
@<TRIPOS>BOND
     1     1     8 1   
     2     1    23 1   
     3     1    27 1   
     4     2     3 ar  
     5     2    26 ar  
     6     2    45 1   
     7     3     4 ar  
     8     3    28 1   
     9     4    12 ar  
    10     4    15 1   
    11     5     6 1   
    12     5    15 1   
    13     5    20 1   
    14     5    29 1   
    15     6    30 1   
    16     6    31 1   
    17     6    32 1   
    18     7    11 1   
    19     7    13 1   
    20     7    25 2   
    21     8    16 2   
    22     8    21 1   
    23     9    18 ar  
    24     9    23 ar  
    25     9    33 1   
    26    10    14 ar  
    27    10    18 ar  
    28    10    19 1   
    29    11    20 1   
    30    11    34 1   
    31    12    17 ar  
    32    12    24 1   
    33    13    21 2   
    34    13    22 1   
    35    14    22 ar  
    36    14    35 1   
    37    17    26 ar  
    38    17    36 1   
    39    18    37 1   
    40    20    38 1   
    41    20    39 1   
    42    21    40 1   
    43    22    23 ar  
    44    24    46 1   
    45    26    44 1   
    46    41    46 1   
    47    42    46 1   
    48    43    46 1   
@<TRIPOS>SUBSTRUCTURE
     1 L93         1 TEMP              0 ****  ****    0 ROOT
