@<TRIPOS>MOLECULE
L94
   60    60     1     0     0
SMALL
No Charge or Current Charge


@<TRIPOS>ATOM
      1 C1          -1.3450    -2.2210     0.5030 cc         1 L94      -0.113500
      2 C2          -0.6450    -3.4500     0.2320 cc         1 L94      -0.118250
      3 C3           0.6470    -3.4530    -0.2560 cd         1 L94      -0.118250
      4 C4           1.3350    -2.2060    -0.5180 cd         1 L94      -0.113500
      5 C5           0.6350    -0.9670    -0.2470 cd         1 L94      -0.118250
      6 C6          -0.6570    -0.9850     0.2400 cc         1 L94      -0.118250
      7 C11         -2.6250    -2.2250     0.9860 c2         1 L94       0.484500
      8 N111        -3.3880    -3.2950     1.3000 nv         1 L94      -0.883500
      9 N114         3.3960    -3.2460    -1.3250 nv         1 L94      -0.883500
     10 C14          2.6170    -2.1920    -1.0020 c2         1 L94       0.484500
     11 N21         -3.4120    -1.1550     1.2840 nu         1 L94      -0.768200
     12 N24          3.4130    -1.1290    -1.3000 nu         1 L94      -0.768200
     13 C31         -4.2880    -0.5360     0.2720 c3         1 L94       0.192800
     14 C34          4.2780    -0.5060    -0.2810 c3         1 L94       0.192800
     15 C41         -5.1480     0.5650     0.9170 c3         1 L94      -0.118400
     16 C44          5.1590     0.5800    -0.9240 c3         1 L94      -0.118400
     17 C51         -6.1190     1.2170    -0.0870 c3         1 L94       0.091100
     18 C54          6.1150     1.2380     0.0890 c3         1 L94       0.091100
     19 N61         -7.0450     2.2600     0.5470 nx         1 L94      -0.653500
     20 N64          7.0610     2.2660    -0.5410 nx         1 L94      -0.653500
     21 C71         -6.2890     3.4850     1.0940 c3         1 L94       0.070650
     22 C74          6.3240     3.4890    -1.1170 c3         1 L94       0.070650
     23 C81         -8.1620     2.6820    -0.4210 c3         1 L94       0.070650
     24 C84          8.1630     2.6930     0.4420 c3         1 L94       0.070650
     25 H2          -1.1430    -4.4020     0.4060 ha         1 L94       0.228000
     26 H3           1.1360    -4.4090    -0.4320 ha         1 L94       0.228000
     27 H5           1.1160    -0.0060    -0.4230 ha         1 L94       0.228000
     28 H6          -1.1610    -0.0390     0.4260 ha         1 L94       0.228000
     29 H111        -2.9090    -4.0080     1.8370 hn         1 L94       0.554500
     30 H411         2.9250    -3.9660    -1.8610 hn         1 L94       0.554500
     31 H11A        -4.2570    -3.0130     1.7340 hn         1 L94       0.554500
     32 H41A         4.2560    -2.9440    -1.7640 hn         1 L94       0.554500
     33 H121        -2.9830    -0.5040     1.9450 hn         1 L94       0.545000
     34 H424         2.9830    -0.4740    -1.9580 hn         1 L94       0.545000
     35 H131        -3.6870    -0.1050    -0.5430 h1         1 L94       0.090950
     36 H434         3.6680    -0.0610     0.5200 h1         1 L94       0.090950
     37 H13A        -4.9480    -1.2950    -0.1730 h1         1 L94       0.090950
     38 H43A         4.9240    -1.2660     0.1830 h1         1 L94       0.090950
     39 H141        -5.7250     0.1310     1.7430 hc         1 L94       0.082700
     40 H444         5.7460     0.1320    -1.7340 hc         1 L94       0.082700
     41 H14A        -4.4910     1.3320     1.3430 hc         1 L94       0.082700
     42 H44A         4.5150     1.3460    -1.3710 hc         1 L94       0.082700
     43 H151        -5.5500     1.6960    -0.8890 hx         1 L94       0.113200
     44 H454         5.5350     1.7310     0.8750 hx         1 L94       0.113200
     45 H15A        -6.7380     0.4350    -0.5370 hx         1 L94       0.113200
     46 H45A         6.7200     0.4570     0.5610 hx         1 L94       0.113200
     47 H161        -7.5160     1.7990     1.3650 hn         1 L94       0.507000
     48 H464         7.5430     1.7910    -1.3440 hn         1 L94       0.507000
     49 H171        -5.7640     3.9870     0.2770 hx         1 L94       0.112033
     50 H474         7.0430     4.1780    -1.5670 hx         1 L94       0.112033
     51 H17A        -6.9950     4.1850     1.5480 hx         1 L94       0.112033
     52 H47A         5.6090     3.1730    -1.8810 hx         1 L94       0.112033
     53 H17B        -5.5620     3.1730     1.8480 hx         1 L94       0.112033
     54 H47B         5.7880     4.0050    -0.3170 hx         1 L94       0.112033
     55 H181        -8.7260     1.8040    -0.7470 hx         1 L94       0.112033
     56 H484         8.7140     1.8150     0.7890 hx         1 L94       0.112033
     57 H18A        -8.8410     3.3810     0.0750 hx         1 L94       0.112033
     58 H48A         8.8560     3.3800    -0.0500 hx         1 L94       0.112033
     59 H18B        -7.7250     3.1700    -1.2950 hx         1 L94       0.112033
     60 H48B         7.7130     3.1950     1.3020 hx         1 L94       0.112033
@<TRIPOS>BOND
     1     1     2 1   
     2     1     6 1   
     3     1     7 2   
     4     2     3 2   
     5     2    25 1   
     6     3     4 1   
     7     3    26 1   
     8     4     5 1   
     9     4    10 2   
    10     5     6 2   
    11     5    27 1   
    12     6    28 1   
    13     7     8 1   
    14     7    11 1   
    15     8    29 1   
    16     8    31 1   
    17     9    10 1   
    18     9    30 1   
    19     9    32 1   
    20    10    12 1   
    21    11    13 1   
    22    11    33 1   
    23    12    14 1   
    24    12    34 1   
    25    13    15 1   
    26    13    35 1   
    27    13    37 1   
    28    14    16 1   
    29    14    36 1   
    30    14    38 1   
    31    15    17 1   
    32    15    39 1   
    33    15    41 1   
    34    16    18 1   
    35    16    40 1   
    36    16    42 1   
    37    17    19 1   
    38    17    43 1   
    39    17    45 1   
    40    18    20 1   
    41    18    44 1   
    42    18    46 1   
    43    19    21 1   
    44    19    23 1   
    45    19    47 1   
    46    20    22 1   
    47    20    24 1   
    48    20    48 1   
    49    21    49 1   
    50    21    51 1   
    51    21    53 1   
    52    22    50 1   
    53    22    52 1   
    54    22    54 1   
    55    23    55 1   
    56    23    57 1   
    57    23    59 1   
    58    24    56 1   
    59    24    58 1   
    60    24    60 1   
@<TRIPOS>SUBSTRUCTURE
     1 L94         1 TEMP              0 ****  ****    0 ROOT
