@<TRIPOS>MOLECULE
L94
   60    60     1     0     0
SMALL
abcg2


@<TRIPOS>ATOM
      1 C1          -1.3110    -1.3730     0.4250 cc         1 L94      -0.113500
      2 C2          -0.6530    -2.5810     0.2180 cc         1 L94      -0.118250
      3 C3           0.6580    -2.5810    -0.2240 cd         1 L94      -0.118250
      4 C4           1.3150    -1.3740    -0.4380 cd         1 L94      -0.113500
      5 C5           0.6600    -0.1660    -0.2220 cd         1 L94      -0.118250
      6 C6          -0.6580    -0.1660     0.2010 cc         1 L94      -0.118250
      7 C11         -2.7160    -1.3790     0.8790 c2         1 L94       0.484500
      8 N111        -3.0660    -2.1960     1.8400 nv         1 L94      -0.883500
      9 N114         3.0660    -2.1940    -1.8570 nv         1 L94      -0.883500
     10 C14          2.7190    -1.3800    -0.8930 c2         1 L94       0.484500
     11 N21         -3.5660    -0.5680     0.2980 nu         1 L94      -0.768200
     12 N24          3.5700    -0.5730    -0.3090 nu         1 L94      -0.768200
     13 C31         -4.9740    -0.4640     0.6420 c3         1 L94       0.192800
     14 C34          4.9790    -0.4700    -0.6510 c3         1 L94       0.192800
     15 C41         -5.5830     0.7550    -0.0330 c3         1 L94      -0.118400
     16 C44          5.5880     0.7480     0.0260 c3         1 L94      -0.118400
     17 C51         -7.0780     0.7670     0.2250 c3         1 L94       0.091100
     18 C54          7.0850     0.7560    -0.2220 c3         1 L94       0.091100
     19 N61         -7.7360     2.0260    -0.2310 nx         1 L94      -0.653500
     20 N64          7.7400     2.0190     0.2260 nx         1 L94      -0.653500
     21 C71         -7.5370     2.2950    -1.6770 c3         1 L94       0.070650
     22 C74          7.5310     2.3010     1.6680 c3         1 L94       0.070650
     23 C81         -9.1820     2.0050     0.1060 c3         1 L94       0.070650
     24 C84          9.1890     1.9950    -0.1030 c3         1 L94       0.070650
     25 H2          -1.1570    -3.5240     0.3810 ha         1 L94       0.228000
     26 H3           1.1640    -3.5250    -0.3810 ha         1 L94       0.228000
     27 H5           1.1600     0.7770    -0.3980 ha         1 L94       0.228000
     28 H6          -1.1590     0.7770     0.3730 ha         1 L94       0.228000
     29 H111        -2.3700    -2.7230     2.3450 hn         1 L94       0.554500
     30 H411         2.3680    -2.7160    -2.3640 hn         1 L94       0.554500
     31 H11A        -4.0190    -2.2950     2.1590 hn         1 L94       0.554500
     32 H41A         4.0180    -2.2940    -2.1780 hn         1 L94       0.554500
     33 H121        -3.2460    -0.0830    -0.5290 hn         1 L94       0.545000
     34 H424         3.2520    -0.0910     0.5200 hn         1 L94       0.545000
     35 H131        -5.4920    -1.3740     0.3270 h1         1 L94       0.090950
     36 H434         5.4960    -1.3810    -0.3380 h1         1 L94       0.090950
     37 H13A        -5.0710    -0.3780     1.7260 h1         1 L94       0.090950
     38 H43A         5.0780    -0.3820    -1.7340 h1         1 L94       0.090950
     39 H141        -5.1190     1.6620     0.3620 hc         1 L94       0.082700
     40 H444         5.1290     1.6560    -0.3730 hc         1 L94       0.082700
     41 H14A        -5.3800     0.7100    -1.1040 hc         1 L94       0.082700
     42 H44A         5.3780     0.7060     1.0960 hc         1 L94       0.082700
     43 H151        -7.5780    -0.0530    -0.2890 hx         1 L94       0.113200
     44 H454         7.5810    -0.0600     0.3040 hx         1 L94       0.113200
     45 H15A        -7.2880     0.6840     1.2910 hx         1 L94       0.113200
     46 H45A         7.3020     0.6620    -1.2850 hx         1 L94       0.113200
     47 H161        -7.3180     2.8000     0.2870 hn         1 L94       0.507000
     48 H464         7.3250     2.7870    -0.3030 hn         1 L94       0.507000
     49 H171        -7.8930     1.4380    -2.2430 hx         1 L94       0.112033
     50 H474         8.0950     3.1910     1.9330 hx         1 L94       0.112033
     51 H17A        -8.1030     3.1810    -1.9470 hx         1 L94       0.112033
     52 H47A         6.4780     2.4740     1.8610 hx         1 L94       0.112033
     53 H17B        -6.4850     2.4670    -1.8780 hx         1 L94       0.112033
     54 H47B         7.8850     1.4500     2.2440 hx         1 L94       0.112033
     55 H181        -9.2950     1.8160     1.1700 hx         1 L94       0.112033
     56 H484         9.3070     1.7960    -1.1630 hx         1 L94       0.112033
     57 H18A        -9.6150     2.9680    -0.1470 hx         1 L94       0.112033
     58 H48A         9.6200     2.9590     0.1450 hx         1 L94       0.112033
     59 H18B        -9.6620     1.2170    -0.4670 hx         1 L94       0.112033
     60 H48B         9.6640     1.2110     0.4800 hx         1 L94       0.112033
@<TRIPOS>BOND
     1     1     2 1   
     2     1     6 1   
     3     1     7 2   
     4     2     3 2   
     5     2    25 1   
     6     3     4 1   
     7     3    26 1   
     8     4     5 1   
     9     4    10 2   
    10     5     6 2   
    11     5    27 1   
    12     6    28 1   
    13     7     8 1   
    14     7    11 1   
    15     8    29 1   
    16     8    31 1   
    17     9    10 1   
    18     9    30 1   
    19     9    32 1   
    20    10    12 1   
    21    11    13 1   
    22    11    33 1   
    23    12    14 1   
    24    12    34 1   
    25    13    15 1   
    26    13    35 1   
    27    13    37 1   
    28    14    16 1   
    29    14    36 1   
    30    14    38 1   
    31    15    17 1   
    32    15    39 1   
    33    15    41 1   
    34    16    18 1   
    35    16    40 1   
    36    16    42 1   
    37    17    19 1   
    38    17    43 1   
    39    17    45 1   
    40    18    20 1   
    41    18    44 1   
    42    18    46 1   
    43    19    21 1   
    44    19    23 1   
    45    19    47 1   
    46    20    22 1   
    47    20    24 1   
    48    20    48 1   
    49    21    49 1   
    50    21    51 1   
    51    21    53 1   
    52    22    50 1   
    53    22    52 1   
    54    22    54 1   
    55    23    55 1   
    56    23    57 1   
    57    23    59 1   
    58    24    56 1   
    59    24    58 1   
    60    24    60 1   
@<TRIPOS>SUBSTRUCTURE
     1 L94         1 TEMP              0 ****  ****    0 ROOT
