@<TRIPOS>MOLECULE
L95
   95    95     1     0     0
SMALL
No Charge or Current Charge


@<TRIPOS>ATOM
      1 C4          -1.8480    65.0180    25.6740 c6         1 L95      -0.107700
      2 C14          0.7430    59.4430    25.9880 c2         1 L95      -0.093400
      3 C5          -1.0280    64.1340    24.6920 c6         1 L95       0.204300
      4 C6          -1.8230    62.9270    24.1150 c3         1 L95      -0.113400
      5 C11          0.1740    57.6370    22.8420 c3         1 L95       0.182300
      6 C7          -1.0140    61.9340    23.2490 c3         1 L95       0.214500
      7 C8          -1.8720    60.7790    22.7740 c2         1 L95      -0.240200
      8 C9          -1.4560    59.5690    22.3560 c2         1 L95      -0.169200
      9 C10         -0.0190    59.0700    22.2490 c3         1 L95      -0.024500
     10 C12         -0.0490    57.5510    24.3860 c3         1 L95      -0.055500
     11 C13          0.9600    58.4250    25.1300 c2         1 L95      -0.231200
     12 C3          -0.9250    66.1190    26.2380 c6         1 L95      -0.072400
     13 C1           0.9730    64.3600    26.1170 c          1 L95       0.675100
     14 C15         -0.6180    59.9910    26.4190 c3         1 L95      -0.046200
     15 C16         -1.0650    59.5620    27.8530 c3         1 L95      -0.054700
     16 C17         -2.4470    60.1780    28.2700 c3         1 L95       0.178300
     17 C18         -2.5660    61.7400    28.2130 c3         1 L95      -0.094700
     18 C19         -4.0090    62.2410    28.5690 c3         1 L95       0.195300
     19 C2           0.2940    65.4760    26.9250 c6         1 L95      -0.194400
     20 C20         -5.1590    61.6210    27.7090 c3         1 L95      -0.035500
     21 C21         -4.9600    61.8320    26.2120 c2         1 L95      -0.220200
     22 C22         -5.1000    60.9340    25.2190 c2         1 L95      -0.213200
     23 C23         -5.5110    59.4760    25.3230 c3         1 L95      -0.046200
     24 C24         -4.3800    58.5180    24.9080 c3         1 L95      -0.090100
     25 C26         -3.1120    65.6480    25.0220 c3         1 L95      -0.083100
     26 C27          0.4590    59.1570    20.7820 c3         1 L95      -0.080100
     27 C28          0.0630    56.0980    24.9140 c3         1 L95      -0.091100
     28 C29          1.8980    60.2010    26.6230 c3         1 L95      -0.065900
     29 C30         -1.0640    58.0140    27.9830 c3         1 L95      -0.087100
     30 C31         -1.4720    62.4510    29.0630 c3         1 L95      -0.086100
     31 C32         -6.5510    62.1390    28.1360 c3         1 L95      -0.086100
     32 N33         -4.0870    65.7760    29.0210 nt         1 L95      -0.601000
     33 O1           2.1580    64.1000    26.2620 o          1 L95      -0.513000
     34 O11         -0.6930    56.7120    22.1640 oh         1 L95      -0.663000
     35 O17         -2.7850    59.7500    29.5970 oh         1 L95      -0.660000
     36 O19         -4.0590    63.6730    28.3610 os         1 L95      -0.479100
     37 O33         -4.0410    64.1810    30.6120 o          1 L95      -0.536000
     38 O5           0.1640    63.6020    25.3090 os         1 L95      -0.471100
     39 O7          -0.4940    62.6110    22.1040 oh         1 L95      -0.661000
     40 H4          -2.2040    64.3930    26.5040 hc         1 L95       0.076700
     41 H5          -0.7100    64.7680    23.8510 h1         1 L95       0.053700
     42 H61         -2.6570    63.2980    23.5090 hc         1 L95       0.061200
     43 H62         -2.2760    62.3640    24.9360 hc         1 L95       0.061200
     44 H11          1.2160    57.3460    22.6530 h1         1 L95       0.027700
     45 H7          -0.1920    61.5330    23.8590 h1         1 L95       0.056700
     46 H8          -2.9400    60.9950    22.7750 ha         1 L95       0.169000
     47 H9          -2.1990    58.8380    22.0320 ha         1 L95       0.183000
     48 H10          0.6400    59.7390    22.8130 hc         1 L95       0.061700
     49 H12         -1.0720    57.8810    24.5930 hc         1 L95       0.064700
     50 H13          1.9910    58.1440    24.9070 ha         1 L95       0.165000
     51 H31         -0.5880    66.7800    25.4260 hc         1 L95       0.050200
     52 H32         -1.4680    66.7500    26.9550 hc         1 L95       0.050200
     53 H152        -0.5740    61.0830    26.3630 hc         1 L95       0.048700
     54 H151        -1.3990    59.7070    25.7090 hc         1 L95       0.048700
     55 H16         -0.3130    59.9260    28.5620 hc         1 L95       0.065700
     56 H17         -3.1800    59.7660    27.5660 h1         1 L95       0.032700
     57 H18         -2.3960    62.0400    27.1760 hc         1 L95       0.059700
     58 H19         -4.2160    61.9800    29.6160 h1         1 L95       0.080700
     59 H022         1.0440    66.2100    27.2470 hc         1 L95       0.080700
     60 H021        -0.0700    64.9890    27.8370 hc         1 L95       0.080700
     61 H20         -5.1730    60.5510    27.9350 hc         1 L95       0.051700
     62 H21         -4.6740    62.8540    25.9570 ha         1 L95       0.172000
     63 H22         -4.9280    61.2560    24.1910 ha         1 L95       0.167000
     64 H231        -6.3760    59.2960    24.6730 hc         1 L95       0.043700
     65 H223        -5.8410    59.2150    26.3340 hc         1 L95       0.043700
     66 H243        -4.7190    57.4760    24.9690 hc         1 L95       0.036033
     67 H242        -4.0630    58.7150    23.8780 hc         1 L95       0.036033
     68 H241        -3.5130    58.6330    25.5660 hc         1 L95       0.036033
     69 H262        -3.6230    66.3220    25.7200 hc         1 L95       0.039367
     70 H263        -2.8530    66.2300    24.1290 hc         1 L95       0.039367
     71 H261        -3.8410    64.8850    24.7260 hc         1 L95       0.039367
     72 H272         1.5030    58.8330    20.6930 hc         1 L95       0.039700
     73 H273        -0.1550    58.5260    20.1280 hc         1 L95       0.039700
     74 H271         0.3920    60.1890    20.4180 hc         1 L95       0.039700
     75 H281        -0.0170    56.0730    26.0060 hc         1 L95       0.035367
     76 H282        -0.7380    55.4640    24.5150 hc         1 L95       0.035367
     77 H283         1.0280    55.6550    24.6380 hc         1 L95       0.035367
     78 H293         1.8570    61.2670    26.3710 hc         1 L95       0.046367
     79 H291         1.8850    60.1130    27.7150 hc         1 L95       0.046367
     80 H292         2.8700    59.8250    26.2800 hc         1 L95       0.046367
     81 H303        -1.3290    57.6880    28.9950 hc         1 L95       0.036700
     82 H301        -1.7740    57.5620    27.2790 hc         1 L95       0.036700
     83 H302        -0.0670    57.6080    27.7790 hc         1 L95       0.036700
     84 H312        -1.5480    63.5390    28.9790 hc         1 L95       0.042033
     85 H313        -1.5640    62.1870    30.1230 hc         1 L95       0.042033
     86 H311        -0.4650    62.1820    28.7260 hc         1 L95       0.042033
     87 H333        -6.7120    61.9820    29.2100 hc         1 L95       0.040367
     88 H321        -6.6570    63.2100    27.9250 hc         1 L95       0.040367
     89 H322        -7.3400    61.6070    27.5930 hc         1 L95       0.040367
     90 H332        -4.0940    66.5220    29.6980 hn         1 L95       0.323500
     91 H331        -4.1070    65.9660    28.0320 hn         1 L95       0.323500
     92 H011        -0.4820    55.8220    22.5160 ho         1 L95       0.441000
     93 H017        -2.7710    58.7700    29.5930 ho         1 L95       0.439000
     94 HO7          0.2680    63.1420    22.4170 ho         1 L95       0.442000
     95 C33         -4.0600    64.5040    29.4380 c          1 L95       0.643100
@<TRIPOS>BOND
     1     1     3 1   
     2     1    12 1   
     3     1    25 1   
     4     1    40 1   
     5     2    11 2   
     6     2    14 1   
     7     2    28 1   
     8     3     4 1   
     9     3    38 1   
    10     3    41 1   
    11     4     6 1   
    12     4    42 1   
    13     4    43 1   
    14     5     9 1   
    15     5    10 1   
    16     5    34 1   
    17     5    44 1   
    18     6     7 1   
    19     6    39 1   
    20     6    45 1   
    21     7     8 2   
    22     7    46 1   
    23     8     9 1   
    24     8    47 1   
    25     9    26 1   
    26     9    48 1   
    27    10    11 1   
    28    10    27 1   
    29    10    49 1   
    30    11    50 1   
    31    12    19 1   
    32    12    51 1   
    33    12    52 1   
    34    13    19 1   
    35    13    33 2   
    36    13    38 1   
    37    14    15 1   
    38    14    53 1   
    39    14    54 1   
    40    15    16 1   
    41    15    29 1   
    42    15    55 1   
    43    16    17 1   
    44    16    35 1   
    45    16    56 1   
    46    17    18 1   
    47    17    30 1   
    48    17    57 1   
    49    18    20 1   
    50    18    36 1   
    51    18    58 1   
    52    19    59 1   
    53    19    60 1   
    54    20    21 1   
    55    20    31 1   
    56    20    61 1   
    57    21    22 2   
    58    21    62 1   
    59    22    23 1   
    60    22    63 1   
    61    23    24 1   
    62    23    64 1   
    63    23    65 1   
    64    24    66 1   
    65    24    67 1   
    66    24    68 1   
    67    25    69 1   
    68    25    70 1   
    69    25    71 1   
    70    26    72 1   
    71    26    73 1   
    72    26    74 1   
    73    27    75 1   
    74    27    76 1   
    75    27    77 1   
    76    28    78 1   
    77    28    79 1   
    78    28    80 1   
    79    29    81 1   
    80    29    82 1   
    81    29    83 1   
    82    30    84 1   
    83    30    85 1   
    84    30    86 1   
    85    31    87 1   
    86    31    88 1   
    87    31    89 1   
    88    32    90 1   
    89    32    91 1   
    90    32    95 1   
    91    34    92 1   
    92    35    93 1   
    93    36    95 1   
    94    37    95 2   
    95    39    94 1   
@<TRIPOS>SUBSTRUCTURE
     1 L95         1 TEMP              0 ****  ****    0 ROOT
