@<TRIPOS>MOLECULE
L95
   95    95     1     0     0
SMALL
abcg2


@<TRIPOS>ATOM
      1 C4          -1.9820    64.9740    25.5230 c6         1 L95      -0.107700
      2 C14          0.7000    59.4160    26.0920 c2         1 L95      -0.093400
      3 C5          -1.1390    64.1290    24.5810 c6         1 L95       0.204300
      4 C6          -1.8250    62.8610    24.1120 c3         1 L95      -0.113400
      5 C11          0.3110    57.7610    22.8910 c3         1 L95       0.182300
      6 C7          -1.0050    61.9710    23.1780 c3         1 L95       0.214500
      7 C8          -1.8290    60.7820    22.7700 c2         1 L95      -0.240200
      8 C9          -1.3570    59.5850    22.4300 c2         1 L95      -0.169200
      9 C10          0.0860    59.1760    22.3490 c3         1 L95      -0.024500
     10 C12         -0.0100    57.6330    24.3930 c3         1 L95      -0.055500
     11 C13          0.9530    58.4650    25.1890 c2         1 L95      -0.231200
     12 C3          -1.1100    66.1030    26.0540 c6         1 L95      -0.072400
     13 C1           0.7500    64.3690    26.1420 c          1 L95       0.675100
     14 C15         -0.6710    59.9100    26.4700 c3         1 L95      -0.046200
     15 C16         -1.1350    59.4470    27.8620 c3         1 L95      -0.054700
     16 C17         -2.4700    60.0940    28.2600 c3         1 L95       0.178300
     17 C18         -2.4860    61.6330    28.1810 c3         1 L95      -0.094700
     18 C19         -3.8560    62.1940    28.5930 c3         1 L95       0.195300
     19 C2           0.0730    65.5320    26.8140 c6         1 L95      -0.194400
     20 C20         -5.0470    61.6580    27.7850 c3         1 L95      -0.035500
     21 C21         -4.8590    61.8280    26.3050 c2         1 L95      -0.220200
     22 C22         -5.0370    60.9080    25.3570 c2         1 L95      -0.213200
     23 C23         -5.4380    59.4760    25.5210 c3         1 L95      -0.046200
     24 C24         -4.4590    58.5180    24.8450 c3         1 L95      -0.090100
     25 C26         -3.2240    65.5190    24.8270 c3         1 L95      -0.083100
     26 C27          0.5780    59.3030    20.9030 c3         1 L95      -0.080100
     27 C28          0.0990    56.1720    24.8440 c3         1 L95      -0.091100
     28 C29          1.8290    60.0940    26.8160 c3         1 L95      -0.065900
     29 C30         -1.2580    57.9260    27.8990 c3         1 L95      -0.087100
     30 C31         -1.3650    62.2610    29.0070 c3         1 L95      -0.086100
     31 C32         -6.3560    62.3110    28.2370 c3         1 L95      -0.086100
     32 N33         -3.7670    65.7160    29.0790 nt         1 L95      -0.601000
     33 O1           1.8390    63.9700    26.4760 o          1 L95      -0.513000
     34 O11         -0.4600    56.8790    22.1020 oh         1 L95      -0.663000
     35 O17         -2.7720    59.6630    29.5760 oh         1 L95      -0.660000
     36 O19         -3.8200    63.6150    28.4130 os         1 L95      -0.479100
     37 O33         -4.0350    64.0720    30.6190 o          1 L95      -0.536000
     38 O5           0.1110    63.7150    25.1810 os         1 L95      -0.471100
     39 O7          -0.6250    62.6600    21.9950 oh         1 L95      -0.661000
     40 H4          -2.3000    64.3510    26.3670 hc         1 L95       0.076700
     41 H5          -0.8760    64.7500    23.7150 h1         1 L95       0.053700
     42 H61         -2.7470    63.1450    23.5980 hc         1 L95       0.061200
     43 H62         -2.1300    62.2720    24.9830 hc         1 L95       0.061200
     44 H11          1.3830    57.5320    22.7700 h1         1 L95       0.027700
     45 H7          -0.1130    61.6200    23.7110 h1         1 L95       0.056700
     46 H8          -2.9050    60.9350    22.7250 ha         1 L95       0.169000
     47 H9          -2.0800    58.8330    22.1280 ha         1 L95       0.183000
     48 H10          0.6910    59.8480    22.9640 hc         1 L95       0.061700
     49 H12         -1.0370    57.9710    24.5640 hc         1 L95       0.064700
     50 H13          1.9990    58.2150    25.0130 ha         1 L95       0.165000
     51 H31         -0.7670    66.7230    25.2200 hc         1 L95       0.050200
     52 H32         -1.6860    66.7530    26.7140 hc         1 L95       0.050200
     53 H152        -0.6370    61.0020    26.4360 hc         1 L95       0.048700
     54 H151        -1.4190    59.6090    25.7320 hc         1 L95       0.048700
     55 H16         -0.3810    59.7420    28.6000 hc         1 L95       0.065700
     56 H17         -3.2190    59.7100    27.5530 h1         1 L95       0.032700
     57 H18         -2.3380    61.9090    27.1310 hc         1 L95       0.059700
     58 H19         -4.0350    61.9770    29.6490 h1         1 L95       0.080700
     59 H022         0.8310    66.2870    27.0230 hc         1 L95       0.080700
     60 H021        -0.2610    65.1610    27.7890 hc         1 L95       0.080700
     61 H20         -5.1320    60.5950    28.0220 hc         1 L95       0.051700
     62 H21         -4.5880    62.8290    25.9790 ha         1 L95       0.172000
     63 H22         -4.8770    61.2220    24.3270 ha         1 L95       0.167000
     64 H231        -6.4280    59.3370    25.0740 hc         1 L95       0.043700
     65 H223        -5.5440    59.2130    26.5750 hc         1 L95       0.043700
     66 H243        -4.8060    57.4870    24.9190 hc         1 L95       0.036033
     67 H242        -4.3420    58.7540    23.7860 hc         1 L95       0.036033
     68 H241        -3.4720    58.5710    25.3050 hc         1 L95       0.036033
     69 H262        -3.7510    66.2040    25.4920 hc         1 L95       0.039367
     70 H263        -2.9610    66.0710    23.9230 hc         1 L95       0.039367
     71 H261        -3.9250    64.7320    24.5510 hc         1 L95       0.039367
     72 H272         1.6170    58.9800    20.8150 hc         1 L95       0.039700
     73 H273        -0.0180    58.7010    20.2180 hc         1 L95       0.039700
     74 H271         0.5200    60.3400    20.5750 hc         1 L95       0.039700
     75 H281        -0.0510    56.0850    25.9190 hc         1 L95       0.035367
     76 H282        -0.6500    55.5380    24.3670 hc         1 L95       0.035367
     77 H283         1.0860    55.7630    24.6160 hc         1 L95       0.035367
     78 H293         1.8210    61.1710    26.6300 hc         1 L95       0.046367
     79 H291         1.7440    59.9670    27.8980 hc         1 L95       0.046367
     80 H292         2.8010    59.7060    26.5130 hc         1 L95       0.046367
     81 H303        -1.5760    57.5660    28.8750 hc         1 L95       0.036700
     82 H301        -1.9810    57.5780    27.1560 hc         1 L95       0.036700
     83 H302        -0.3030    57.4560    27.6680 hc         1 L95       0.036700
     84 H312        -1.3480    63.3460    28.9110 hc         1 L95       0.042033
     85 H313        -1.4640    62.0190    30.0660 hc         1 L95       0.042033
     86 H311        -0.3860    61.9110    28.6780 hc         1 L95       0.042033
     87 H333        -6.4720    62.2530    29.3220 hc         1 L95       0.040367
     88 H321        -6.4130    63.3610    27.9460 hc         1 L95       0.040367
     89 H322        -7.2050    61.8000    27.7830 hc         1 L95       0.040367
     90 H332        -3.9240    66.4460    29.7520 hn         1 L95       0.323500
     91 H331        -3.7790    65.9730    28.1060 hn         1 L95       0.323500
     92 H011        -0.1600    55.9790    22.2540 ho         1 L95       0.441000
     93 H017        -3.7240    59.5780    29.6740 ho         1 L95       0.439000
     94 HO7          0.1140    63.2400    22.2020 ho         1 L95       0.442000
     95 C33         -3.8950    64.4340    29.4690 c          1 L95       0.643100
@<TRIPOS>BOND
     1     1     3 1   
     2     1    12 1   
     3     1    25 1   
     4     1    40 1   
     5     2    11 2   
     6     2    14 1   
     7     2    28 1   
     8     3     4 1   
     9     3    38 1   
    10     3    41 1   
    11     4     6 1   
    12     4    42 1   
    13     4    43 1   
    14     5     9 1   
    15     5    10 1   
    16     5    34 1   
    17     5    44 1   
    18     6     7 1   
    19     6    39 1   
    20     6    45 1   
    21     7     8 2   
    22     7    46 1   
    23     8     9 1   
    24     8    47 1   
    25     9    26 1   
    26     9    48 1   
    27    10    11 1   
    28    10    27 1   
    29    10    49 1   
    30    11    50 1   
    31    12    19 1   
    32    12    51 1   
    33    12    52 1   
    34    13    19 1   
    35    13    33 2   
    36    13    38 1   
    37    14    15 1   
    38    14    53 1   
    39    14    54 1   
    40    15    16 1   
    41    15    29 1   
    42    15    55 1   
    43    16    17 1   
    44    16    35 1   
    45    16    56 1   
    46    17    18 1   
    47    17    30 1   
    48    17    57 1   
    49    18    20 1   
    50    18    36 1   
    51    18    58 1   
    52    19    59 1   
    53    19    60 1   
    54    20    21 1   
    55    20    31 1   
    56    20    61 1   
    57    21    22 2   
    58    21    62 1   
    59    22    23 1   
    60    22    63 1   
    61    23    24 1   
    62    23    64 1   
    63    23    65 1   
    64    24    66 1   
    65    24    67 1   
    66    24    68 1   
    67    25    69 1   
    68    25    70 1   
    69    25    71 1   
    70    26    72 1   
    71    26    73 1   
    72    26    74 1   
    73    27    75 1   
    74    27    76 1   
    75    27    77 1   
    76    28    78 1   
    77    28    79 1   
    78    28    80 1   
    79    29    81 1   
    80    29    82 1   
    81    29    83 1   
    82    30    84 1   
    83    30    85 1   
    84    30    86 1   
    85    31    87 1   
    86    31    88 1   
    87    31    89 1   
    88    32    90 1   
    89    32    91 1   
    90    32    95 1   
    91    34    92 1   
    92    35    93 1   
    93    36    95 1   
    94    37    95 2   
    95    39    94 1   
@<TRIPOS>SUBSTRUCTURE
     1 L95         1 TEMP              0 ****  ****    0 ROOT
