@<TRIPOS>MOLECULE
L96
   64    68     1     0     0
SMALL
No Charge or Current Charge


@<TRIPOS>ATOM
      1 O1           0.5740     5.4770     0.9250 o          1 L96      -0.733500
      2 C24          1.1990     4.4440     1.1120 c          1 L96       0.723000
      3 O2           2.4160     4.3910     1.1900 o          1 L96      -0.733500
      4 C23          0.4150     3.1330     1.1770 c3         1 L96      -0.236400
      5 C22          0.2800     2.5620    -0.2510 c3         1 L96       0.077600
      6 N2          -0.4850     1.3010    -0.2990 na         1 L96      -0.053700
      7 C12          0.0130    -0.0090    -0.1620 cc         1 L96       0.007700
      8 C5          -1.1120    -0.8380    -0.0590 cd         1 L96      -0.068400
      9 C2          -1.0220    -2.2600     0.2340 cd         1 L96      -0.110800
     10 C1          -0.0840    -3.1190    -0.2920 cc         1 L96      -0.132300
     11 C            0.9760    -2.9630    -1.3540 c3         1 L96      -0.028800
     12 N1          -0.4400    -4.3510     0.2540 na         1 L96      -0.017200
     13 N           -1.5440    -4.3040     1.0890 nc         1 L96      -0.546800
     14 C3          -1.8900    -3.0300     1.0580 cd         1 L96       0.269300
     15 C4          -2.9930    -2.5600     1.9720 c3         1 L96      -0.118400
     16 C6          -2.3060    -0.0150    -0.1600 ca         1 L96      -0.090800
     17 C7          -3.6670    -0.3470    -0.2460 ca         1 L96      -0.061000
     18 C8          -4.6140     0.6920    -0.3920 ca         1 L96      -0.094300
     19 C25         -6.0830     0.3460    -0.4650 cx         1 L96      -0.059400
     20 C26         -7.0460     1.0950    -1.3590 cx         1 L96      -0.135400
     21 C27         -7.1520     1.2290     0.1410 cx         1 L96      -0.135400
     22 C9          -4.1620     2.0350    -0.4820 ca         1 L96      -0.109000
     23 C10         -2.7850     2.3380    -0.4530 ca         1 L96      -0.102000
     24 C11         -1.8750     1.2790    -0.3030 ca         1 L96      -0.041200
     25 C13          1.3890    -0.3720     0.1820 ca         1 L96       0.012200
     26 C14          1.6790    -1.0140     1.4010 ca         1 L96      -0.113000
     27 C15          3.0030    -1.3420     1.7350 ca         1 L96      -0.083000
     28 C16          4.0500    -1.0270     0.8530 ca         1 L96      -0.201000
     29 C17          3.7720    -0.3790    -0.3700 ca         1 L96       0.141100
     30 C18          2.4460    -0.0440    -0.6890 ca         1 L96      -0.130000
     31 O            4.7540    -0.0370    -1.2800 os         1 L96      -0.352100
     32 C19          6.1080    -0.5240    -1.2080 c3         1 L96       0.180300
     33 C20          6.1160    -2.0170    -1.6050 c3         1 L96      -0.106100
     34 C21          6.9390     0.3390    -2.1770 c3         1 L96      -0.106100
     35 H2           0.9630     2.3790     1.7540 hc         1 L96       0.033200
     36 H3          -0.6070     3.3100     1.5330 hc         1 L96       0.033200
     37 H4          -0.2070     3.3000    -0.9010 h1         1 L96       0.067200
     38 H5           1.2800     2.3860    -0.6640 h1         1 L96       0.067200
     39 H6           1.9750    -2.8900    -0.9100 hc         1 L96       0.049700
     40 H7           0.9800    -3.8280    -2.0290 hc         1 L96       0.049700
     41 H8           0.7990    -2.0750    -1.9720 hc         1 L96       0.049700
     42 H9           0.0330    -5.2340     0.0670 hn         1 L96       0.358000
     43 H10         -3.9800    -2.7920     1.5570 hc         1 L96       0.046033
     44 H11         -2.9260    -3.0530     2.9490 hc         1 L96       0.046033
     45 H12         -2.9340    -1.4830     2.1560 hc         1 L96       0.046033
     46 H13         -3.9860    -1.3840    -0.2310 ha         1 L96       0.106000
     47 H14         -6.2550    -0.7250    -0.3800 hc         1 L96       0.069700
     48 H15         -6.6730     1.9470    -1.9210 hc         1 L96       0.066700
     49 H16         -7.8110     0.5160    -1.8710 hc         1 L96       0.066700
     50 H17         -7.9870     0.7400     0.6350 hc         1 L96       0.066700
     51 H18         -6.8490     2.1710     0.5910 hc         1 L96       0.066700
     52 H19         -4.8720     2.8500    -0.5990 ha         1 L96       0.099000
     53 H20         -2.4480     3.3660    -0.5530 ha         1 L96       0.128000
     54 H21          0.8750    -1.2550     2.0930 ha         1 L96       0.129000
     55 H22          3.2160    -1.8380     2.6790 ha         1 L96       0.105000
     56 H23          5.0640    -1.2880     1.1390 ha         1 L96       0.106000
     57 H24          2.2360     0.4540    -1.6310 ha         1 L96       0.132000
     58 H25          6.5250    -0.3980    -0.2000 h1         1 L96       0.043700
     59 H26          7.1430    -2.4010    -1.6250 hc         1 L96       0.042367
     60 H27          5.5470    -2.6230    -0.8920 hc         1 L96       0.042367
     61 H28          5.6800    -2.1570    -2.6020 hc         1 L96       0.042367
     62 H29          6.9050     1.3930    -1.8770 hc         1 L96       0.042367
     63 H30          7.9870     0.0170    -2.1740 hc         1 L96       0.042367
     64 H31          6.5560     0.2560    -3.2010 hc         1 L96       0.042367
@<TRIPOS>BOND
     1     1     2 1   
     2     2     3 1   
     3     2     4 1   
     4     4     5 1   
     5     4    35 1   
     6     4    36 1   
     7     5     6 1   
     8     5    37 1   
     9     5    38 1   
    10     6     7 1   
    11     6    24 1   
    12     7     8 2   
    13     7    25 1   
    14     8     9 1   
    15     8    16 1   
    16     9    10 2   
    17     9    14 1   
    18    10    11 1   
    19    10    12 1   
    20    11    39 1   
    21    11    40 1   
    22    11    41 1   
    23    12    13 1   
    24    12    42 1   
    25    13    14 2   
    26    14    15 1   
    27    15    43 1   
    28    15    44 1   
    29    15    45 1   
    30    16    17 ar  
    31    16    24 ar  
    32    17    18 ar  
    33    17    46 1   
    34    18    19 1   
    35    18    22 ar  
    36    19    20 1   
    37    19    21 1   
    38    19    47 1   
    39    20    21 1   
    40    20    48 1   
    41    20    49 1   
    42    21    50 1   
    43    21    51 1   
    44    22    23 ar  
    45    22    52 1   
    46    23    24 ar  
    47    23    53 1   
    48    25    26 ar  
    49    25    30 ar  
    50    26    27 ar  
    51    26    54 1   
    52    27    28 ar  
    53    27    55 1   
    54    28    29 ar  
    55    28    56 1   
    56    29    30 ar  
    57    29    31 1   
    58    30    57 1   
    59    31    32 1   
    60    32    33 1   
    61    32    34 1   
    62    32    58 1   
    63    33    59 1   
    64    33    60 1   
    65    33    61 1   
    66    34    62 1   
    67    34    63 1   
    68    34    64 1   
@<TRIPOS>SUBSTRUCTURE
     1 L96         1 TEMP              0 ****  ****    0 ROOT
