@<TRIPOS>MOLECULE
L96
   64    68     1     0     0
SMALL
bcc


@<TRIPOS>ATOM
      1 O1           1.6220     4.8600     0.6970 o          1 L96      -0.838800
      2 C24          1.0800     4.3140     1.6790 c          1 L96       0.933600
      3 O2           1.1160     4.7040     2.8620 o          1 L96      -0.838800
      4 C23          0.2750     3.0290     1.4160 c3         1 L96      -0.236400
      5 C22          0.3340     2.5380    -0.0230 c3         1 L96       0.048300
      6 N2          -0.4280     1.3150    -0.2150 na         1 L96      -0.024400
      7 C12          0.0000     0.0420     0.0900 cc         1 L96       0.007700
      8 C5          -1.0690    -0.8240     0.1180 cd         1 L96      -0.068400
      9 C2          -1.0230    -2.2580     0.3700 cd         1 L96      -0.176100
     10 C1          -0.2650    -3.2120    -0.2840 cc         1 L96      -0.081600
     11 C            0.6980    -3.0990    -1.4100 c3         1 L96      -0.028800
     12 N1          -0.5320    -4.3760     0.3330 na         1 L96      -0.017600
     13 N           -1.4000    -4.2600     1.3380 nc         1 L96      -0.546800
     14 C3          -1.7090    -2.9770     1.3790 cd         1 L96       0.334600
     15 C4          -2.6430    -2.4340     2.4040 c3         1 L96      -0.118400
     16 C6          -2.2290    -0.0380    -0.1740 ca         1 L96      -0.090800
     17 C7          -3.5860    -0.3410    -0.3190 ca         1 L96      -0.079000
     18 C8          -4.4950     0.6670    -0.5950 ca         1 L96      -0.094300
     19 C25         -5.9360     0.3320    -0.7330 cx         1 L96      -0.059400
     20 C26         -6.8300     1.0720    -1.6900 cx         1 L96      -0.135400
     21 C27         -7.0090     1.2540    -0.2190 cx         1 L96      -0.135400
     22 C9          -4.0300     1.9920    -0.7320 ca         1 L96      -0.127000
     23 C10         -2.6930     2.3170    -0.6170 ca         1 L96      -0.120000
     24 C11         -1.7910     1.2870    -0.3520 ca         1 L96      -0.041200
     25 C13          1.4110    -0.2880     0.3200 ca         1 L96       0.012200
     26 C14          1.7820    -0.9440     1.4940 ca         1 L96      -0.131000
     27 C15          3.1060    -1.3010     1.6830 ca         1 L96      -0.101000
     28 C16          4.0740    -1.0190     0.7270 ca         1 L96      -0.219000
     29 C17          3.7080    -0.3640    -0.4480 ca         1 L96       0.141100
     30 C18          2.3730    -0.0080    -0.6430 ca         1 L96      -0.148000
     31 O            4.5520    -0.0270    -1.4420 os         1 L96      -0.328900
     32 C19          5.9070    -0.4870    -1.4340 c3         1 L96       0.157100
     33 C20          5.9850    -1.9570    -1.8130 c3         1 L96      -0.106100
     34 C21          6.6600     0.3920    -2.4120 c3         1 L96      -0.106100
     35 H2           0.6320     2.2400     2.0860 hc         1 L96       0.033200
     36 H3          -0.7680     3.2060     1.7020 hc         1 L96       0.033200
     37 H4          -0.0590     3.2880    -0.7080 h1         1 L96       0.067200
     38 H5           1.3640     2.3600    -0.3240 h1         1 L96       0.067200
     39 H6           1.6950    -2.8340    -1.0520 hc         1 L96       0.049700
     40 H7           0.7750    -4.0340    -1.9650 hc         1 L96       0.049700
     41 H8           0.3860    -2.3180    -2.1020 hc         1 L96       0.049700
     42 H9          -0.1460    -5.2790     0.1090 hn         1 L96       0.307700
     43 H10         -3.6290    -2.2210     1.9880 hc         1 L96       0.046033
     44 H11         -2.7750    -3.1410     3.2230 hc         1 L96       0.046033
     45 H12         -2.2650    -1.4980     2.8170 hc         1 L96       0.046033
     46 H13         -3.9300    -1.3650    -0.2140 ha         1 L96       0.124000
     47 H14         -6.1470    -0.7260    -0.6260 hc         1 L96       0.069700
     48 H15         -6.3990     1.8870    -2.2580 hc         1 L96       0.066700
     49 H16         -7.5710     0.4970    -2.2320 hc         1 L96       0.066700
     50 H17         -7.8720     0.8050     0.2560 hc         1 L96       0.066700
     51 H18         -6.6980     2.1920     0.2240 hc         1 L96       0.066700
     52 H19         -4.7360     2.7880    -0.9350 ha         1 L96       0.117000
     53 H20         -2.3700     3.3440    -0.7350 ha         1 L96       0.146000
     54 H21          1.0390    -1.1670     2.2470 ha         1 L96       0.147000
     55 H22          3.4020    -1.8070     2.5920 ha         1 L96       0.123000
     56 H23          5.0950    -1.3150     0.9200 ha         1 L96       0.124000
     57 H24          2.0870     0.4680    -1.5740 ha         1 L96       0.150000
     58 H25          6.3380    -0.3380    -0.4380 h1         1 L96       0.043700
     59 H26          7.0220    -2.2910    -1.7780 hc         1 L96       0.042367
     60 H27          5.4140    -2.5940    -1.1370 hc         1 L96       0.042367
     61 H28          5.6140    -2.1160    -2.8260 hc         1 L96       0.042367
     62 H29          6.6080     1.4420    -2.1240 hc         1 L96       0.042367
     63 H30          7.7100     0.1020    -2.4330 hc         1 L96       0.042367
     64 H31          6.2640     0.2900    -3.4240 hc         1 L96       0.042367
@<TRIPOS>BOND
     1     1     2 1   
     2     2     3 1   
     3     2     4 1   
     4     4     5 1   
     5     4    35 1   
     6     4    36 1   
     7     5     6 1   
     8     5    37 1   
     9     5    38 1   
    10     6     7 1   
    11     6    24 1   
    12     7     8 2   
    13     7    25 1   
    14     8     9 1   
    15     8    16 1   
    16     9    10 2   
    17     9    14 1   
    18    10    11 1   
    19    10    12 1   
    20    11    39 1   
    21    11    40 1   
    22    11    41 1   
    23    12    13 1   
    24    12    42 1   
    25    13    14 2   
    26    14    15 1   
    27    15    43 1   
    28    15    44 1   
    29    15    45 1   
    30    16    17 ar  
    31    16    24 ar  
    32    17    18 ar  
    33    17    46 1   
    34    18    19 1   
    35    18    22 ar  
    36    19    20 1   
    37    19    21 1   
    38    19    47 1   
    39    20    21 1   
    40    20    48 1   
    41    20    49 1   
    42    21    50 1   
    43    21    51 1   
    44    22    23 ar  
    45    22    52 1   
    46    23    24 ar  
    47    23    53 1   
    48    25    26 ar  
    49    25    30 ar  
    50    26    27 ar  
    51    26    54 1   
    52    27    28 ar  
    53    27    55 1   
    54    28    29 ar  
    55    28    56 1   
    56    29    30 ar  
    57    29    31 1   
    58    30    57 1   
    59    31    32 1   
    60    32    33 1   
    61    32    34 1   
    62    32    58 1   
    63    33    59 1   
    64    33    60 1   
    65    33    61 1   
    66    34    62 1   
    67    34    63 1   
    68    34    64 1   
@<TRIPOS>SUBSTRUCTURE
     1 L96         1 TEMP              0 ****  ****    0 ROOT
