@<TRIPOS>MOLECULE
L97
   13    13     1     0     0
SMALL
No Charge or Current Charge


@<TRIPOS>ATOM
      1 Cl           2.0530    -0.6180     0.0320 cl         1 L97      -0.186000
      2 C4           0.3070    -0.3580     0.0220 ca         1 L97       0.381000
      3 C           -0.2410     0.9670     0.0360 ca         1 L97       0.271000
      4 N            0.5270     2.1250     0.0590 nv         1 L97      -1.069000
      5 N1          -0.4420    -1.4900    -0.0000 nb         1 L97      -0.628000
      6 C3          -1.7870    -1.3430    -0.0100 ca         1 L97       0.299900
      7 C2          -2.4210    -0.0860     0.0020 ca         1 L97      -0.117000
      8 C1          -1.6410     1.0860     0.0250 ca         1 L97      -0.155000
      9 H1           1.5410     2.0690    -0.0470 hn         1 L97       0.465500
     10 H2           0.0900     3.0380    -0.0630 hn         1 L97       0.465500
     11 H3          -2.3750    -2.2600    -0.0280 h4         1 L97       0.028100
     12 H4          -3.5060    -0.0290    -0.0060 ha         1 L97       0.125000
     13 H5          -2.1180     2.0630     0.0360 ha         1 L97       0.120000
@<TRIPOS>BOND
     1     1     2 1   
     2     2     3 ar  
     3     2     5 ar  
     4     3     4 1   
     5     3     8 ar  
     6     4     9 1   
     7     4    10 1   
     8     5     6 ar  
     9     6     7 ar  
    10     6    11 1   
    11     7     8 ar  
    12     7    12 1   
    13     8    13 1   
@<TRIPOS>SUBSTRUCTURE
     1 L97         1 TEMP              0 ****  ****    0 ROOT
