@<TRIPOS>MOLECULE
L97
   13    13     1     0     0
SMALL
bcc


@<TRIPOS>ATOM
      1 CL           1.9990    -0.5370     0.0650 cl         1 L97      -0.186000
      2 C4           0.2670    -0.3300     0.0370 ca         1 L97       0.446300
      3 C           -0.2440     0.9770     0.0650 ca         1 L97       0.067300
      4 N            0.5490     2.0850     0.1610 nv         1 L97      -0.820200
      5 N1          -0.4490    -1.4200    -0.0060 nb         1 L97      -0.628000
      6 C3          -1.7740    -1.3190    -0.0230 ca         1 L97       0.365200
      7 C2          -2.4070    -0.0870     0.0000 ca         1 L97      -0.200300
      8 C1          -1.6390     1.0620     0.0410 ca         1 L97      -0.173000
      9 H1           1.4980     2.0060    -0.1670 hn         1 L97       0.410300
     10 H2           0.1200     2.9580    -0.0990 hn         1 L97       0.410300
     11 H3          -2.3350    -2.2440    -0.0580 h4         1 L97       0.028100
     12 H4          -3.4860    -0.0250    -0.0160 ha         1 L97       0.143000
     13 H5          -2.1120     2.0370     0.0580 ha         1 L97       0.138000
@<TRIPOS>BOND
     1     1     2 1   
     2     2     3 ar  
     3     2     5 ar  
     4     3     4 1   
     5     3     8 ar  
     6     4     9 1   
     7     4    10 1   
     8     5     6 ar  
     9     6     7 ar  
    10     6    11 1   
    11     7     8 ar  
    12     7    12 1   
    13     8    13 1   
@<TRIPOS>SUBSTRUCTURE
     1 L97         1 TEMP              0 ****  ****    0 ROOT
