@<TRIPOS>MOLECULE
L98
   28    28     1     0     0
SMALL
No Charge or Current Charge


@<TRIPOS>ATOM
      1 S           -4.3110    -1.0720     0.0290 sh         1 L98      -0.395800
      2 C1          -2.8250    -0.1860     0.6870 c3         1 L98       0.127600
      3 C2          -1.6320    -0.1610    -0.2920 c3         1 L98      -0.172400
      4 C3          -0.3350     0.3250     0.3640 ca         1 L98       0.014700
      5 C4           0.8640    -0.3870     0.1530 ca         1 L98      -0.146000
      6 C5           2.0650     0.0360     0.7470 ca         1 L98       0.276000
      7 C6          -0.3100     1.4750     1.1810 ca         1 L98      -0.116000
      8 C7           0.8880     1.8950     1.7830 ca         1 L98      -0.098000
      9 C8           2.0720     1.1720     1.5690 ca         1 L98      -0.190000
     10 N9           3.2490    -0.6680     0.5540 nu         1 L98      -0.982200
     11 C10          3.8270    -1.0960    -0.5370 c2         1 L98       0.828100
     12 N11          3.4960    -0.6720    -1.6500 n2         1 L98      -0.934100
     13 N12          5.0460    -1.3420    -0.1640 nv         1 L98      -1.018200
     14 C13         -1.9540     0.6700    -1.5470 c          1 L98       0.728000
     15 O14         -1.8950     0.1140    -2.6350 o          1 L98      -0.712000
     16 O15         -2.1980     1.8610    -1.4150 o          1 L98      -0.712000
     17 HS          -5.0840    -0.8950     1.1260 hs         1 L98       0.129800
     18 H11A        -2.5200    -0.6940     1.6110 h1         1 L98       0.039700
     19 H12         -3.1250     0.8370     0.9480 h1         1 L98       0.039700
     20 H2          -1.4740    -1.1960    -0.6190 hc         1 L98       0.053700
     21 H4           0.8600    -1.2800    -0.4660 ha         1 L98       0.129000
     22 H6          -1.2160     2.0510     1.3490 ha         1 L98       0.138000
     23 H7           0.8970     2.7820     2.4140 ha         1 L98       0.097000
     24 H8           2.9960     1.5030     2.0380 ha         1 L98       0.090000
     25 HN9          3.9810    -0.4290     1.2070 hn         1 L98       0.480000
     26 H11          2.5760    -0.2470    -1.4980 hn         1 L98       0.376400
     27 H121         5.0810    -2.1850     0.3920 hn         1 L98       0.465500
     28 H122         5.6470    -1.3890    -0.9740 hn         1 L98       0.465500
@<TRIPOS>BOND
     1     1     2 1   
     2     1    17 1   
     3     2     3 1   
     4     2    18 1   
     5     2    19 1   
     6     3     4 1   
     7     3    14 1   
     8     3    20 1   
     9     4     5 ar  
    10     4     7 ar  
    11     5     6 ar  
    12     5    21 1   
    13     6     9 ar  
    14     6    10 1   
    15     7     8 ar  
    16     7    22 1   
    17     8     9 ar  
    18     8    23 1   
    19     9    24 1   
    20    10    11 1   
    21    10    25 1   
    22    11    12 2   
    23    11    13 1   
    24    12    26 1   
    25    13    27 1   
    26    13    28 1   
    27    14    15 1   
    28    14    16 1   
@<TRIPOS>SUBSTRUCTURE
     1 L98         1 TEMP              0 ****  ****    0 ROOT
