@<TRIPOS>MOLECULE
L98
   28    28     1     0     0
SMALL
abcg2


@<TRIPOS>ATOM
      1 S           -3.8260    -1.4940     0.7340 sh         1 L98      -0.395800
      2 C1          -2.2350    -0.6630     1.0840 c3         1 L98       0.127600
      3 C2          -1.5840    -0.1450    -0.1910 c3         1 L98      -0.172400
      4 C3          -0.2950     0.5650     0.1440 ca         1 L98       0.014700
      5 C4           0.9290     0.0120    -0.2130 ca         1 L98      -0.146000
      6 C5           2.1300     0.6450     0.1190 ca         1 L98       0.276000
      7 C6          -0.3200     1.7840     0.8210 ca         1 L98      -0.116000
      8 C7           0.8660     2.4300     1.1300 ca         1 L98      -0.098000
      9 C8           2.0870     1.8660     0.7920 ca         1 L98      -0.190000
     10 N9           3.3770     0.1410    -0.2570 nu         1 L98      -0.982200
     11 C10          3.8210    -1.1660    -0.2870 c2         1 L98       0.828100
     12 N11          4.9550    -1.5190    -0.7680 n2         1 L98      -0.934100
     13 N12          2.9610    -2.1100     0.2070 nv         1 L98      -1.018200
     14 C13         -2.5100     0.8010    -0.9930 c          1 L98       0.728000
     15 O14         -2.1190     1.1050    -2.1350 o          1 L98      -0.712000
     16 O15         -3.5490     1.1870    -0.4240 o          1 L98      -0.712000
     17 HS          -3.5200    -2.6790     1.2770 hs         1 L98       0.129800
     18 H11A        -1.5850    -1.3840     1.5790 h1         1 L98       0.039700
     19 H12         -2.4200     0.1500     1.7840 h1         1 L98       0.039700
     20 H2          -1.3440    -1.0040    -0.8260 hc         1 L98       0.053700
     21 H4           0.9440    -0.9180    -0.7660 ha         1 L98       0.129000
     22 H6          -1.2680     2.2350     1.0880 ha         1 L98       0.138000
     23 H7           0.8460     3.3810     1.6470 ha         1 L98       0.097000
     24 H8           3.0100     2.3720     1.0490 ha         1 L98       0.090000
     25 HN9          4.1070     0.8290    -0.3560 hn         1 L98       0.480000
     26 H11          5.4350    -0.7350    -1.1930 hn         1 L98       0.376400
     27 H121         3.3870    -3.0160     0.3170 hn         1 L98       0.465500
     28 H122         2.3850    -1.8500     0.9920 hn         1 L98       0.465500
@<TRIPOS>BOND
     1     1     2 1   
     2     1    17 1   
     3     2     3 1   
     4     2    18 1   
     5     2    19 1   
     6     3     4 1   
     7     3    14 1   
     8     3    20 1   
     9     4     5 ar  
    10     4     7 ar  
    11     5     6 ar  
    12     5    21 1   
    13     6     9 ar  
    14     6    10 1   
    15     7     8 ar  
    16     7    22 1   
    17     8     9 ar  
    18     8    23 1   
    19     9    24 1   
    20    10    11 1   
    21    10    25 1   
    22    11    12 2   
    23    11    13 1   
    24    12    26 1   
    25    13    27 1   
    26    13    28 1   
    27    14    15 1   
    28    14    16 1   
@<TRIPOS>SUBSTRUCTURE
     1 L98         1 TEMP              0 ****  ****    0 ROOT
