@<TRIPOS>MOLECULE
L99
   22    22     1     0     0
SMALL
No Charge or Current Charge


@<TRIPOS>ATOM
      1 O            2.2850    -1.6530     0.0490 o          1 L99      -0.571100
      2 C            1.9300    -0.4800     0.0530 c          1 L99       0.639700
      3 N1           2.8620     0.5640     0.0810 ns         1 L99      -0.412300
      4 N            4.3160     0.4010     0.1060 n8         1 L99      -0.717200
      5 C1           0.4630    -0.0850     0.0300 ca         1 L99      -0.171600
      6 C6          -0.5270    -1.0950     0.0020 ca         1 L99      -0.081000
      7 C5          -1.8990    -0.7810    -0.0220 ca         1 L99       0.189000
      8 N3          -2.8180    -1.8260    -0.0680 nv         1 L99      -1.039000
      9 C4          -2.2990     0.5930    -0.0100 ca         1 L99       0.285000
     10 N2          -3.6290     0.9790    -0.0080 nv         1 L99      -1.064000
     11 C3          -1.3190     1.5960     0.0140 ca         1 L99      -0.173000
     12 C2           0.0470     1.2680     0.0330 ca         1 L99      -0.074000
     13 H1           2.4740     1.5070     0.0830 hn         1 L99       0.299500
     14 H2           4.7610     0.8510    -0.7090 hn         1 L99       0.394500
     15 H3           4.7310     0.8350     0.9450 hn         1 L99       0.394500
     16 H4          -0.2290    -2.1410    -0.0050 ha         1 L99       0.133000
     17 H5          -3.7770    -1.6290    -0.3460 hn         1 L99       0.425000
     18 H6          -2.4900    -2.7800    -0.2100 hn         1 L99       0.425000
     19 H7          -4.3290     0.2930     0.2650 hn         1 L99       0.448500
     20 H8          -3.8600     1.9540     0.1720 hn         1 L99       0.448500
     21 H9          -1.6130     2.6420     0.0210 ha         1 L99       0.112000
     22 H10          0.7680     2.0820     0.0530 ha         1 L99       0.108000
@<TRIPOS>BOND
     1     1     2 2   
     2     2     3 1   
     3     2     5 1   
     4     3     4 1   
     5     3    13 1   
     6     4    14 1   
     7     4    15 1   
     8     5     6 ar  
     9     5    12 ar  
    10     6     7 ar  
    11     6    16 1   
    12     7     8 1   
    13     7     9 ar  
    14     8    17 1   
    15     8    18 1   
    16     9    10 1   
    17     9    11 ar  
    18    10    19 1   
    19    10    20 1   
    20    11    12 ar  
    21    11    21 1   
    22    12    22 1   
@<TRIPOS>SUBSTRUCTURE
     1 L99         1 TEMP              0 ****  ****    0 ROOT
