@<TRIPOS>MOLECULE
L99
   22    22     1     0     0
SMALL
bcc


@<TRIPOS>ATOM
      1 O            2.2350    -1.5070    -0.6400 o          1 L99      -0.571100
      2 C            1.9080    -0.4050    -0.2260 c          1 L99       0.706700
      3 N1           2.7950     0.5300     0.1740 ns         1 L99      -0.479300
      4 N            4.1580     0.3030     0.0890 n8         1 L99      -0.606800
      5 C1           0.4780    -0.0020    -0.1130 ca         1 L99      -0.171600
      6 C6          -0.4820    -1.0110    -0.0080 ca         1 L99      -0.099000
      7 C5          -1.8350    -0.7350     0.1060 ca         1 L99       0.050600
      8 N3          -2.7710    -1.7510     0.3100 nv         1 L99      -0.790200
      9 C4          -2.2630     0.6130     0.0800 ca         1 L99       0.146600
     10 N2          -3.5910     0.9300     0.2660 nv         1 L99      -0.815200
     11 C3          -1.3040     1.6130    -0.0750 ca         1 L99      -0.191000
     12 C2           0.0470     1.3200    -0.1620 ca         1 L99      -0.092000
     13 H1           2.4700     1.3600     0.6470 hn         1 L99       0.299500
     14 H2           4.5850     1.0750    -0.4060 hn         1 L99       0.339300
     15 H3           4.5510     0.2880     1.0210 hn         1 L99       0.339300
     16 H4          -0.1610    -2.0460     0.0010 ha         1 L99       0.151000
     17 H5          -3.5840    -1.6990    -0.2890 hn         1 L99       0.369800
     18 H6          -2.3690    -2.6720     0.2160 hn         1 L99       0.369800
     19 H7          -4.2760     0.2480    -0.0120 hn         1 L99       0.393300
     20 H8          -3.8570     1.8550    -0.0310 hn         1 L99       0.393300
     21 H9          -1.6290     2.6460    -0.1210 ha         1 L99       0.130000
     22 H10          0.7420     2.1390    -0.2980 ha         1 L99       0.126000
@<TRIPOS>BOND
     1     1     2 2   
     2     2     3 1   
     3     2     5 1   
     4     3     4 1   
     5     3    13 1   
     6     4    14 1   
     7     4    15 1   
     8     5     6 ar  
     9     5    12 ar  
    10     6     7 ar  
    11     6    16 1   
    12     7     8 1   
    13     7     9 ar  
    14     8    17 1   
    15     8    18 1   
    16     9    10 1   
    17     9    11 ar  
    18    10    19 1   
    19    10    20 1   
    20    11    12 ar  
    21    11    21 1   
    22    12    22 1   
@<TRIPOS>SUBSTRUCTURE
     1 L99         1 TEMP              0 ****  ****    0 ROOT
