@<TRIPOS>MOLECULE
L9A
   47    49     1     0     0
SMALL
No Charge or Current Charge


@<TRIPOS>ATOM
      1 C13          2.9090     1.2240    -1.1210 ca         1 L9A      -0.280500
      2 C18          2.8300     1.9870     1.5940 c3         1 L9A      -0.333100
      3 C17         -7.0150     1.5450    -0.1890 cx         1 L9A      -0.093900
      4 C16         -6.0800     1.6210    -1.3720 cx         1 L9A      -0.093900
      5 C15         -5.5570     1.9060     0.0240 cx         1 L9A      -0.257700
      6 C11          2.6510     2.2390    -3.3300 ca         1 L9A      -0.141000
      7 C12          3.3720     2.0960    -2.1340 ca         1 L9A      -0.003000
      8 C1          -0.3410    -1.9260     0.6920 ca         1 L9A      -0.313600
      9 C2          -1.6750    -2.1740     1.0500 ca         1 L9A       0.428900
     10 N1          -2.6810    -1.3070     0.8320 nb         1 L9A      -0.708000
     11 C3          -2.3820    -0.1330     0.2630 ca         1 L9A       0.541900
     12 C4          -1.1020     0.1970    -0.1590 ca         1 L9A      -0.321000
     13 C5          -0.0670    -0.7070     0.0540 ca         1 L9A       0.435000
     14 N2           0.3050    -4.1550     1.5050 ns         1 L9A      -0.494900
     15 C7           1.2090    -5.2550     1.8540 c3         1 L9A       0.093300
     16 O1           1.9070    -2.7420     0.7840 o          1 L9A      -0.621100
     17 N4          -3.4570     0.7240     0.0070 ns         1 L9A      -0.326900
     18 C8           1.7110     0.5080    -1.3110 ca         1 L9A       0.380000
     19 C9           1.0030     0.6570    -2.5170 ca         1 L9A      -0.158000
     20 C10          1.4660     1.5170    -3.5250 ca         1 L9A      -0.045000
     21 C14         -4.6430     0.8970     0.6800 c          1 L9A       0.644100
     22 O2          -4.9450     0.3350     1.7240 o          1 L9A      -0.530100
     23 S1           3.8430     1.1010     0.4100 sy         1 L9A       1.059500
     24 O3           3.8600    -0.3010     0.8460 o          1 L9A      -0.521000
     25 O4           5.0940     1.8600     0.2720 o          1 L9A      -0.521000
     26 H18          1.8560     1.4910     1.6530 h1         1 L9A       0.104367
     27 H19          3.3380     1.9610     2.5640 h1         1 L9A       0.104367
     28 H20          2.7180     3.0180     1.2430 h1         1 L9A       0.104367
     29 H17         -7.3550     0.5600     0.1250 hc         1 L9A       0.083700
     30 H14         -5.7970     0.6850    -1.8500 hc         1 L9A       0.083700
     31 H15         -6.1930     2.4610    -2.0540 hc         1 L9A       0.083700
     32 H13         -5.3400     2.9430     0.2660 hc         1 L9A       0.083700
     33 H11          3.0130     2.9090    -4.1060 ha         1 L9A       0.124000
     34 H12          4.2880     2.6700    -2.0030 ha         1 L9A       0.148000
     35 H1          -1.9740    -3.1000     1.5370 h4         1 L9A       0.018100
     36 H2          -0.9210     1.1570    -0.6280 ha         1 L9A       0.128000
     37 H3          -0.6880    -4.2900     1.6480 hn         1 L9A       0.317500
     38 H6           1.7560    -5.5810     0.9600 h1         1 L9A       0.044033
     39 H5           1.9230    -4.9190     2.6170 h1         1 L9A       0.044033
     40 H4           0.6270    -6.0980     2.2490 h1         1 L9A       0.044033
     41 H8          -3.3330     1.3130    -0.8030 hn         1 L9A       0.153000
     42 H9           0.0910     0.0920    -2.6830 ha         1 L9A       0.130000
     43 H10          0.9080     1.6220    -4.4530 ha         1 L9A       0.119000
     44 N3           1.2110    -0.3620    -0.3470 nu         1 L9A      -1.015000
     45 C6           0.7190    -2.9490     0.9820 c          1 L9A       0.626700
     46 H16         -7.7560     2.3340    -0.0770 hc         1 L9A       0.083700
     47 H7           1.9250    -0.9710     0.0830 hn         1 L9A       0.569000
@<TRIPOS>BOND
     1     1     7 ar  
     2     1    18 ar  
     3     1    23 1   
     4     2    23 1   
     5     2    26 1   
     6     2    27 1   
     7     2    28 1   
     8     3     4 1   
     9     3     5 1   
    10     3    29 1   
    11     3    46 1   
    12     4     5 1   
    13     4    30 1   
    14     4    31 1   
    15     5    21 1   
    16     5    32 1   
    17     6     7 ar  
    18     6    20 ar  
    19     6    33 1   
    20     7    34 1   
    21     8     9 ar  
    22     8    13 ar  
    23     8    45 1   
    24     9    10 ar  
    25     9    35 1   
    26    10    11 ar  
    27    11    12 ar  
    28    11    17 1   
    29    12    13 ar  
    30    12    36 1   
    31    13    44 1   
    32    14    15 1   
    33    14    37 1   
    34    14    45 1   
    35    15    38 1   
    36    15    39 1   
    37    15    40 1   
    38    16    45 2   
    39    17    21 1   
    40    17    41 1   
    41    18    19 ar  
    42    18    44 1   
    43    19    20 ar  
    44    19    42 1   
    45    20    43 1   
    46    21    22 2   
    47    23    24 2   
    48    23    25 2   
    49    44    47 1   
@<TRIPOS>SUBSTRUCTURE
     1 L9A         1 TEMP              0 ****  ****    0 ROOT
