@<TRIPOS>MOLECULE
L9A
   47    49     1     0     0
SMALL
abcg2


@<TRIPOS>ATOM
      1 C13          2.7870     1.3320    -1.0240 ca         1 L9A      -0.280500
      2 C18          2.4190     1.5950     1.7520 c3         1 L9A      -0.333100
      3 C17         -6.4660     2.3280     0.3210 cx         1 L9A      -0.093900
      4 C16         -6.8430     1.5230    -0.8660 cx         1 L9A      -0.093900
      5 C15         -5.3850     1.7300    -0.5430 cx         1 L9A      -0.257700
      6 C11          2.5860     2.5000    -3.1100 ca         1 L9A      -0.141000
      7 C12          3.2180     2.3290    -1.8900 ca         1 L9A      -0.003000
      8 C1          -0.2730    -2.0830     0.4540 ca         1 L9A      -0.313600
      9 C2          -1.6170    -2.3300     0.6980 ca         1 L9A       0.428900
     10 N1          -2.6210    -1.5120     0.4310 nb         1 L9A      -0.708000
     11 C3          -2.3040    -0.3380    -0.1020 ca         1 L9A       0.541900
     12 C4          -1.0040     0.0300    -0.4260 ca         1 L9A      -0.321000
     13 C5           0.0440    -0.8580    -0.1910 ca         1 L9A       0.435000
     14 N2           0.4660    -4.0020     1.7160 ns         1 L9A      -0.494900
     15 C7           1.4010    -5.0300     2.1100 c3         1 L9A       0.093300
     16 O1           1.8970    -3.0370     0.2900 o          1 L9A      -0.621100
     17 N4          -3.3080     0.5740    -0.3870 ns         1 L9A      -0.326900
     18 C8           1.7290     0.4820    -1.3660 ca         1 L9A       0.380000
     19 C9           1.1130     0.6640    -2.6020 ca         1 L9A      -0.158000
     20 C10          1.5320     1.6680    -3.4600 ca         1 L9A      -0.045000
     21 C14         -4.6250     0.5720    -0.0040 c          1 L9A       0.644100
     22 O2          -5.1320    -0.2740     0.7030 o          1 L9A      -0.530100
     23 S1           3.6330     1.1540     0.5310 sy         1 L9A       1.059500
     24 O3           4.0070    -0.2470     0.7120 o          1 L9A      -0.521000
     25 O4           4.6950     2.1570     0.5730 o          1 L9A      -0.521000
     26 H18          1.5960     0.8850     1.7360 h1         1 L9A       0.104367
     27 H19          2.9180     1.5600     2.7200 h1         1 L9A       0.104367
     28 H20          2.0610     2.6020     1.5540 h1         1 L9A       0.104367
     29 H17         -6.6130     1.8940     1.3010 hc         1 L9A       0.083700
     30 H14         -7.2500     0.5340    -0.7030 hc         1 L9A       0.083700
     31 H15         -7.2220     2.0330    -1.7420 hc         1 L9A       0.083700
     32 H13         -4.8410     2.4170    -1.1810 hc         1 L9A       0.083700
     33 H11          2.9200     3.2760    -3.7840 ha         1 L9A       0.124000
     34 H12          4.0390     2.9740    -1.6130 ha         1 L9A       0.148000
     35 H1          -1.9190    -3.2830     1.1180 h4         1 L9A       0.018100
     36 H2          -0.8150     1.0050    -0.8540 ha         1 L9A       0.128000
     37 H3          -0.3910    -3.9340     2.2370 hn         1 L9A       0.317500
     38 H6           1.7660    -5.5840     1.2450 h1         1 L9A       0.044033
     39 H5           2.2600    -4.6210     2.6440 h1         1 L9A       0.044033
     40 H4           0.8860    -5.7240     2.7670 h1         1 L9A       0.044033
     41 H8          -3.0080     1.3790    -0.9150 hn         1 L9A       0.153000
     42 H9           0.3080     0.0050    -2.9000 ha         1 L9A       0.130000
     43 H10          1.0420     1.7860    -4.4170 ha         1 L9A       0.119000
     44 N3           1.3320    -0.5430    -0.5000 nu         1 L9A      -1.015000
     45 C6           0.7790    -3.0700     0.8080 c          1 L9A       0.626700
     46 H16         -6.5790     3.4030     0.2790 hc         1 L9A       0.083700
     47 H7           2.0140    -1.2610    -0.2670 hn         1 L9A       0.569000
@<TRIPOS>BOND
     1     1     7 ar  
     2     1    18 ar  
     3     1    23 1   
     4     2    23 1   
     5     2    26 1   
     6     2    27 1   
     7     2    28 1   
     8     3     4 1   
     9     3     5 1   
    10     3    29 1   
    11     3    46 1   
    12     4     5 1   
    13     4    30 1   
    14     4    31 1   
    15     5    21 1   
    16     5    32 1   
    17     6     7 ar  
    18     6    20 ar  
    19     6    33 1   
    20     7    34 1   
    21     8     9 ar  
    22     8    13 ar  
    23     8    45 1   
    24     9    10 ar  
    25     9    35 1   
    26    10    11 ar  
    27    11    12 ar  
    28    11    17 1   
    29    12    13 ar  
    30    12    36 1   
    31    13    44 1   
    32    14    15 1   
    33    14    37 1   
    34    14    45 1   
    35    15    38 1   
    36    15    39 1   
    37    15    40 1   
    38    16    45 2   
    39    17    21 1   
    40    17    41 1   
    41    18    19 ar  
    42    18    44 1   
    43    19    20 ar  
    44    19    42 1   
    45    20    43 1   
    46    21    22 2   
    47    23    24 2   
    48    23    25 2   
    49    44    47 1   
@<TRIPOS>SUBSTRUCTURE
     1 L9A         1 TEMP              0 ****  ****    0 ROOT
