@<TRIPOS>MOLECULE
L9B
   30    30     1     0     0
SMALL
No Charge or Current Charge


@<TRIPOS>ATOM
      1 C4          17.6940     5.4010    13.6870 c3         1 L9B      -0.041100
      2 C5          18.2970     6.5380    14.5390 c3         1 L9B      -0.073400
      3 C6          18.8580     7.7020    13.6910 c3         1 L9B      -0.083400
      4 C7          19.4590     8.8340    14.5470 c3         1 L9B       0.164600
      5 C8          17.9790     3.1950    14.9180 ca         1 L9B      -0.131500
      6 C9          17.4810     2.1510    15.7170 ca         1 L9B      -0.007000
      7 N           15.0230    -0.2400    16.0420 n8         1 L9B      -1.002100
      8 C           16.1400     2.1750    16.1530 ca         1 L9B      -0.275500
      9 O           16.5930     0.1790    17.8920 o          1 L9B      -0.545000
     10 C1          15.3060     3.2510    15.7850 ca         1 L9B      -0.007000
     11 C2          15.8120     4.2910    14.9860 ca         1 L9B      -0.131500
     12 C3          17.1480     4.2690    14.5470 ca         1 L9B      -0.019300
     13 O1          14.2580     1.2500    17.8140 o          1 L9B      -0.545000
     14 O2          19.9570     9.8710    13.6960 oh         1 L9B      -0.662000
     15 H1          16.8960     5.8090    13.0530 hc         1 L9B       0.053200
     16 H2          18.4600     5.0170    13.0030 hc         1 L9B       0.053200
     17 H3          19.0980     6.1290    15.1670 hc         1 L9B       0.044700
     18 H4          17.5260     6.9250    15.2180 hc         1 L9B       0.044700
     19 H5          19.6300     7.3160    13.0140 hc         1 L9B       0.052700
     20 H6          18.0560     8.1120    13.0650 hc         1 L9B       0.052700
     21 H7          18.6860     9.2310    15.2190 h1         1 L9B       0.017200
     22 H8          20.2700     8.4290    15.1670 h1         1 L9B       0.017200
     23 H9          19.0150     3.1690    14.5880 ha         1 L9B       0.119000
     24 H10         18.1390     1.3280    15.9920 ha         1 L9B       0.137000
     25 H11         14.0640    -0.4110    16.3360 hn         1 L9B       0.472000
     26 H12         14.9230     0.3420    15.2140 hn         1 L9B       0.472000
     27 H13         14.2680     3.2890    16.1150 ha         1 L9B       0.137000
     28 H14         15.1610     5.1180    14.7100 ha         1 L9B       0.119000
     29 H15         20.3280    10.5670    14.2830 ho         1 L9B       0.444000
     30 S           15.5050     0.8400    17.1710 sy         1 L9B       1.124600
@<TRIPOS>BOND
     1     1     2 1   
     2     1    12 1   
     3     1    15 1   
     4     1    16 1   
     5     2     3 1   
     6     2    17 1   
     7     2    18 1   
     8     3     4 1   
     9     3    19 1   
    10     3    20 1   
    11     4    14 1   
    12     4    21 1   
    13     4    22 1   
    14     5     6 ar  
    15     5    12 ar  
    16     5    23 1   
    17     6     8 ar  
    18     6    24 1   
    19     7    25 1   
    20     7    26 1   
    21     7    30 1   
    22     8    10 ar  
    23     8    30 1   
    24     9    30 2   
    25    10    11 ar  
    26    10    27 1   
    27    11    12 ar  
    28    11    28 1   
    29    13    30 2   
    30    14    29 1   
@<TRIPOS>SUBSTRUCTURE
     1 L9B         1 TEMP              0 ****  ****    0 ROOT
