@<TRIPOS>MOLECULE
L9B
   30    30     1     0     0
SMALL
bcc


@<TRIPOS>ATOM
      1 C4          17.5620     5.5080    13.7080 c3         1 L9B      -0.041100
      2 C5          18.3260     6.5260    14.5570 c3         1 L9B      -0.073400
      3 C6          18.8450     7.6900    13.7240 c3         1 L9B      -0.083400
      4 C7          19.6270     8.6860    14.5590 c3         1 L9B       0.141400
      5 C8          17.8550     3.3610    14.9850 ca         1 L9B      -0.149500
      6 C9          17.3690     2.3280    15.7650 ca         1 L9B      -0.025000
      7 N           15.3580    -0.2430    15.9870 n8         1 L9B      -0.891700
      8 C           16.0190     2.3120    16.0990 ca         1 L9B      -0.275500
      9 O           16.3930     0.6000    18.0770 o          1 L9B      -0.615800
     10 C1          15.1630     3.3120    15.6660 ca         1 L9B      -0.025000
     11 C2          15.6700     4.3390    14.8830 ca         1 L9B      -0.149500
     12 C3          17.0150     4.3780    14.5300 ca         1 L9B      -0.019300
     13 O1          14.0700     1.3680    17.5600 o          1 L9B      -0.615800
     14 O2          20.0690     9.7360    13.7240 oh         1 L9B      -0.599800
     15 H1          16.7440     6.0110    13.1870 hc         1 L9B       0.053200
     16 H2          18.2280     5.1110    12.9370 hc         1 L9B       0.053200
     17 H3          19.1620     6.0260    15.0580 hc         1 L9B       0.044700
     18 H4          17.6710     6.9000    15.3500 hc         1 L9B       0.044700
     19 H5          19.4820     7.3100    12.9190 hc         1 L9B       0.052700
     20 H6          18.0020     8.1990    13.2470 hc         1 L9B       0.052700
     21 H7          18.9860     9.0610    15.3690 h1         1 L9B       0.017200
     22 H8          20.4720     8.1730    15.0370 h1         1 L9B       0.017200
     23 H9          18.9060     3.3750    14.7210 ha         1 L9B       0.137000
     24 H10         18.0370     1.5470    16.1040 ha         1 L9B       0.155000
     25 H11         15.3060    -1.1490    16.4450 hn         1 L9B       0.416800
     26 H12         14.6010    -0.1460    15.3190 hn         1 L9B       0.416800
     27 H13         14.1140     3.3000    15.9280 ha         1 L9B       0.155000
     28 H14         15.0020     5.1190    14.5390 ha         1 L9B       0.137000
     29 H15         20.5810    10.3490    14.2580 ho         1 L9B       0.405000
     30 S           15.3960     0.9880    17.0890 sy         1 L9B       1.266200
@<TRIPOS>BOND
     1     1     2 1   
     2     1    12 1   
     3     1    15 1   
     4     1    16 1   
     5     2     3 1   
     6     2    17 1   
     7     2    18 1   
     8     3     4 1   
     9     3    19 1   
    10     3    20 1   
    11     4    14 1   
    12     4    21 1   
    13     4    22 1   
    14     5     6 ar  
    15     5    12 ar  
    16     5    23 1   
    17     6     8 ar  
    18     6    24 1   
    19     7    25 1   
    20     7    26 1   
    21     7    30 1   
    22     8    10 ar  
    23     8    30 1   
    24     9    30 2   
    25    10    11 ar  
    26    10    27 1   
    27    11    12 ar  
    28    11    28 1   
    29    13    30 2   
    30    14    29 1   
@<TRIPOS>SUBSTRUCTURE
     1 L9B         1 TEMP              0 ****  ****    0 ROOT
