@<TRIPOS>MOLECULE
L9C
   53    55     1     0     0
SMALL
No Charge or Current Charge


@<TRIPOS>ATOM
      1 C10         -1.5750     1.7640    21.0530 c3         1 L9C       0.115000
      2 C11         -2.5390     1.8190    19.8770 cc         1 L9C      -0.265300
      3 C13         -3.3850     2.2400    17.7370 cd         1 L9C      -0.138000
      4 C14         -2.2870     2.3410    18.6320 cd         1 L9C      -0.101000
      5 C21         -1.8310    -1.2540    20.4070 ca         1 L9C      -0.053000
      6 C22         -2.0420    -2.4850    19.7620 ca         1 L9C      -0.196000
      7 C23         -2.4290    -5.0030    18.3650 c3         1 L9C       0.146900
      8 C1          -3.8210     2.2950    27.3560 ca         1 L9C      -0.105500
      9 C12         -4.4870     1.6390    18.2870 cc         1 L9C      -0.233000
     10 C16          1.1280     2.2800    22.1680 c3         1 L9C       0.039600
     11 C17         -1.1490    -2.9240    18.7600 ca         1 L9C       0.156100
     12 C18         -0.0320    -2.1250    18.4420 ca         1 L9C       0.076000
     13 C19          0.1700    -0.8970    19.0930 ca         1 L9C      -0.048000
     14 C2          -3.7340     3.4030    26.4900 ca         1 L9C      -0.084300
     15 C20         -0.7670    -0.4080    20.0290 ca         1 L9C      -0.090000
     16 C3          -4.3600     4.6120    26.8480 ca         1 L9C      -0.105500
     17 C4          -5.0630     4.7140    28.0610 ca         1 L9C      -0.108500
     18 C5          -5.1450     3.6070    28.9220 ca         1 L9C      -0.108000
     19 C6          -4.5240     2.3970    28.5690 ca         1 L9C      -0.108500
     20 C7          -2.9780     3.2880    25.1740 c3         1 L9C      -0.055100
     21 C8          -3.8620     2.7100    24.0510 c3         1 L9C       0.100000
     22 C9          -2.2320     1.6270    22.4590 c          1 L9C       0.573100
     23 N1          -3.1470     2.6120    22.7740 ns         1 L9C      -0.496900
     24 N2          -0.4670     0.7800    20.8020 n          1 L9C      -0.215400
     25 O1          -1.9570     0.7300    23.2440 o          1 L9C      -0.595100
     26 O2           1.6250     0.0470    21.4680 o          1 L9C      -0.553100
     27 O3          -1.3180    -4.1280    18.1000 os         1 L9C      -0.323100
     28 S1          -4.1850     1.1750    19.9570 ss         1 L9C       0.247000
     29 Cl1          1.4970     3.6400    21.0010 cl         1 L9C      -0.263000
     30 H1          -1.1340     2.7660    21.0680 h1         1 L9C       0.086700
     31 H2          -3.3530     2.6030    16.7130 ha         1 L9C       0.140000
     32 H3          -1.3360     2.7870    18.3550 ha         1 L9C       0.140000
     33 H4          -2.5060    -0.9620    21.2080 ha         1 L9C       0.140000
     34 H5          -2.8920    -3.0890    20.0650 ha         1 L9C       0.123000
     35 H6          -2.3730    -5.8930    17.7260 h1         1 L9C       0.044367
     36 H7          -2.4240    -5.3350    19.4110 h1         1 L9C       0.044367
     37 H8          -3.3810    -4.4970    18.1590 h1         1 L9C       0.044367
     38 H10         -5.4520     1.4320    17.8410 h4         1 L9C       0.155000
     39 H11          0.3080     2.5880    22.8240 h1         1 L9C       0.090700
     40 H12          2.0220     2.1260    22.7830 h1         1 L9C       0.090700
     41 H13          1.0480    -0.3060    18.8430 ha         1 L9C       0.140000
     42 H14         -4.3040     5.4740    26.1860 ha         1 L9C       0.112500
     43 H15         -5.5450     5.6510    28.3330 ha         1 L9C       0.113000
     44 H16         -5.6890     3.6850    29.8610 ha         1 L9C       0.113000
     45 H17         -4.5870     1.5390    29.2340 ha         1 L9C       0.113000
     46 H18         -2.0950     2.6500    25.3050 hc         1 L9C       0.053200
     47 H19         -2.6030     4.2710    24.8630 hc         1 L9C       0.053200
     48 H20         -4.7400     3.3550    23.9120 h1         1 L9C       0.061700
     49 H21         -4.2200     1.7130    24.3400 h1         1 L9C       0.061700
     50 H22         -3.3240     3.3180    22.0670 hn         1 L9C       0.322500
     51 C15          0.7880     0.9450    21.4690 c          1 L9C       0.618100
     52 Cl2          1.1420    -2.6540    17.2340 cl         1 L9C      -0.184000
     53 H9          -3.3440     1.3550    27.0880 ha         1 L9C       0.112500
@<TRIPOS>BOND
     1     1     2 1   
     2     1    22 1   
     3     1    24 1   
     4     1    30 1   
     5     2     4 2   
     6     2    28 1   
     7     3     4 1   
     8     3     9 2   
     9     3    31 1   
    10     4    32 1   
    11     5     6 ar  
    12     5    15 ar  
    13     5    33 1   
    14     6    11 ar  
    15     6    34 1   
    16     7    27 1   
    17     7    35 1   
    18     7    36 1   
    19     7    37 1   
    20     8    14 ar  
    21     8    19 ar  
    22     8    53 1   
    23     9    28 1   
    24     9    38 1   
    25    10    29 1   
    26    10    39 1   
    27    10    40 1   
    28    10    51 1   
    29    11    12 ar  
    30    11    27 1   
    31    12    13 ar  
    32    12    52 1   
    33    13    15 ar  
    34    13    41 1   
    35    14    16 ar  
    36    14    20 1   
    37    15    24 1   
    38    16    17 ar  
    39    16    42 1   
    40    17    18 ar  
    41    17    43 1   
    42    18    19 ar  
    43    18    44 1   
    44    19    45 1   
    45    20    21 1   
    46    20    46 1   
    47    20    47 1   
    48    21    23 1   
    49    21    48 1   
    50    21    49 1   
    51    22    23 1   
    52    22    25 2   
    53    23    50 1   
    54    24    51 1   
    55    26    51 2   
@<TRIPOS>SUBSTRUCTURE
     1 L9C         1 TEMP              0 ****  ****    0 ROOT
