@<TRIPOS>MOLECULE
L9C
   53    55     1     0     0
SMALL
bcc


@<TRIPOS>ATOM
      1 C10         -1.2530     1.7450    21.1700 c3         1 L9C       0.115000
      2 C11         -2.1640     1.9110    19.9930 cc         1 L9C      -0.120400
      3 C13         -2.9400     2.6290    17.9260 cd         1 L9C      -0.156000
      4 C14         -1.9580     2.7550    18.9420 cd         1 L9C      -0.119000
      5 C21         -1.3480    -1.5190    20.9280 ca         1 L9C      -0.071000
      6 C22         -1.8220    -2.6180    20.2240 ca         1 L9C      -0.214000
      7 C23         -2.7590    -4.7890    18.6980 c3         1 L9C       0.123700
      8 C1          -3.5550     2.6170    27.2940 ca         1 L9C      -0.123500
      9 C12         -3.8780     1.6880    18.2280 cc         1 L9C      -0.106100
     10 C16          1.4540     1.9310    22.1940 c3         1 L9C      -0.037000
     11 C17         -1.6610    -2.6990    18.8430 ca         1 L9C       0.156100
     12 C18         -0.9980    -1.6490    18.1940 ca         1 L9C      -0.015600
     13 C19         -0.5230    -0.5590    18.8920 ca         1 L9C      -0.066000
     14 C2          -3.9110     3.4480    26.2340 ca         1 L9C      -0.084300
     15 C20         -0.7080    -0.4860    20.2670 ca         1 L9C       0.002600
     16 C3          -5.0250     4.2730    26.3790 ca         1 L9C      -0.123500
     17 C4          -5.7620     4.2720    27.5560 ca         1 L9C      -0.126500
     18 C5          -5.3960     3.4410    28.6070 ca         1 L9C      -0.126000
     19 C6          -4.2890     2.6140    28.4730 ca         1 L9C      -0.126500
     20 C7          -3.1410     3.4160    24.9440 c3         1 L9C      -0.055100
     21 C8          -3.7530     2.4080    23.9670 c3         1 L9C       0.100000
     22 C9          -1.9680     1.5560    22.5240 c          1 L9C       0.640100
     23 N1          -3.0380     2.3360    22.7120 ns         1 L9C      -0.563900
     24 N2          -0.2790     0.6820    20.9550 n          1 L9C      -0.375000
     25 O1          -1.5260     0.7860    23.3600 o          1 L9C      -0.595100
     26 O2           1.6860    -0.3040    21.4490 o          1 L9C      -0.553100
     27 O3          -2.0910    -3.7050    18.0780 os         1 L9C      -0.299900
     28 S1          -3.5720     0.9490    19.7380 ss         1 L9C      -0.042800
     29 CL1          1.8800     3.1340    20.9290 cl         1 L9C      -0.186400
     30 H1          -0.7210     2.6970    21.2480 h1         1 L9C       0.086700
     31 H2          -2.9530     3.2150    17.0180 ha         1 L9C       0.158000
     32 H3          -1.1210     3.4400    18.8980 ha         1 L9C       0.158000
     33 H4          -1.4940    -1.4700    21.9980 ha         1 L9C       0.158000
     34 H5          -2.3230    -3.4070    20.7680 ha         1 L9C       0.141000
     35 H6          -3.0100    -5.4880    17.9050 h1         1 L9C       0.044367
     36 H7          -2.1220    -5.2950    19.4280 h1         1 L9C       0.044367
     37 H8          -3.6800    -4.4680    19.1910 h1         1 L9C       0.044367
     38 H10         -4.7380     1.3960    17.6460 h4         1 L9C       0.173000
     39 H11          0.7440     2.3940    22.8740 h1         1 L9C       0.090700
     40 H12          2.3620     1.6970    22.7410 h1         1 L9C       0.090700
     41 H13         -0.0250     0.2460    18.3690 ha         1 L9C       0.158000
     42 H14         -5.3140     4.9270    25.5640 ha         1 L9C       0.130500
     43 H15         -6.6220     4.9220    27.6530 ha         1 L9C       0.131000
     44 H16         -5.9680     3.4410    29.5260 ha         1 L9C       0.131000
     45 H17         -3.9940     1.9650    29.2880 ha         1 L9C       0.131000
     46 H18         -2.1010     3.1430    25.1330 hc         1 L9C       0.053200
     47 H19         -3.1360     4.4050    24.4800 hc         1 L9C       0.053200
     48 H20         -4.7850     2.6830    23.7470 h1         1 L9C       0.061700
     49 H21         -3.7770     1.4160    24.4190 h1         1 L9C       0.061700
     50 H22         -3.2960     2.9900    21.9890 hn         1 L9C       0.322500
     51 C15          0.9570     0.6650    21.5180 c          1 L9C       0.685100
     52 CL2         -0.7830    -1.7320    16.4810 cl         1 L9C      -0.092400
     53 H9          -2.6910     1.9700    27.1960 ha         1 L9C       0.130500
@<TRIPOS>BOND
     1     1     2 1   
     2     1    22 1   
     3     1    24 1   
     4     1    30 1   
     5     2     4 2   
     6     2    28 1   
     7     3     4 1   
     8     3     9 2   
     9     3    31 1   
    10     4    32 1   
    11     5     6 ar  
    12     5    15 ar  
    13     5    33 1   
    14     6    11 ar  
    15     6    34 1   
    16     7    27 1   
    17     7    35 1   
    18     7    36 1   
    19     7    37 1   
    20     8    14 ar  
    21     8    19 ar  
    22     8    53 1   
    23     9    28 1   
    24     9    38 1   
    25    10    29 1   
    26    10    39 1   
    27    10    40 1   
    28    10    51 1   
    29    11    12 ar  
    30    11    27 1   
    31    12    13 ar  
    32    12    52 1   
    33    13    15 ar  
    34    13    41 1   
    35    14    16 ar  
    36    14    20 1   
    37    15    24 1   
    38    16    17 ar  
    39    16    42 1   
    40    17    18 ar  
    41    17    43 1   
    42    18    19 ar  
    43    18    44 1   
    44    19    45 1   
    45    20    21 1   
    46    20    46 1   
    47    20    47 1   
    48    21    23 1   
    49    21    48 1   
    50    21    49 1   
    51    22    23 1   
    52    22    25 2   
    53    23    50 1   
    54    24    51 1   
    55    26    51 2   
@<TRIPOS>SUBSTRUCTURE
     1 L9C         1 TEMP              0 ****  ****    0 ROOT
