@<TRIPOS>MOLECULE
L9D
   26    26     1     0     0
SMALL
bcc


@<TRIPOS>ATOM
      1 C08          1.2290     1.5130    -0.2540 c6         1 L9D       0.153100
      2 C09         -0.2760     1.4500     0.0190 c6         1 L9D       0.185500
      3 C11         -0.8600     0.0980    -0.4250 c6         1 L9D      -0.195700
      4 C12         -0.1500    -1.0470     0.2790 c6         1 L9D       0.155100
      5 C14          1.3440    -0.9960    -0.0350 c6         1 L9D       0.070100
      6 C16          1.9440     0.3350     0.4010 c6         1 L9D       0.116100
      7 C18         -2.3900     0.0560    -0.2270 c          1 L9D       0.938600
      8 N10         -0.4820     1.6790     1.4440 n8         1 L9D      -0.927800
      9 O13         -0.7170    -2.2610    -0.1770 oh         1 L9D      -0.580800
     10 O15          2.0600    -2.0170     0.6430 oh         1 L9D      -0.630800
     11 O17          3.3120     0.4240     0.0590 oh         1 L9D      -0.631800
     12 O19         -3.0960     0.1630    -1.2460 o          1 L9D      -0.834300
     13 O20         -2.8080    -0.0500     0.9490 o          1 L9D      -0.834300
     14 H1           1.6170     2.4380     0.2010 h1         1 L9D       0.025700
     15 H3          -0.7530     2.2270    -0.5980 h1         1 L9D       0.041700
     16 H4          -0.6600     0.0100    -1.4980 hc         1 L9D       0.064700
     17 H5          -0.2820    -0.9490     1.3650 h1         1 L9D       0.064700
     18 H6           1.4740    -1.1050    -1.1210 h1         1 L9D       0.046700
     19 H7           1.8090     0.4340     1.4860 h1         1 L9D       0.070700
     20 H8          -0.4460     2.6710     1.6390 hn         1 L9D       0.358300
     21 H9          -1.4080     1.3530     1.6930 hn         1 L9D       0.358300
     22 H11         -0.4290    -2.9660     0.4100 ho         1 L9D       0.377000
     23 H12          2.0820    -2.8010     0.0880 ho         1 L9D       0.398000
     24 H13          3.7380    -0.3950     0.3350 ho         1 L9D       0.411000
     25 O1           1.4320     1.5370    -1.6500 oh         1 L9D      -0.600800
     26 H2           2.3740     1.4110    -1.8110 ho         1 L9D       0.403000
@<TRIPOS>BOND
     1     1     2 1   
     2     1     6 1   
     3     1    14 1   
     4     1    25 1   
     5     2     3 1   
     6     2     8 1   
     7     2    15 1   
     8     3     4 1   
     9     3     7 1   
    10     3    16 1   
    11     4     5 1   
    12     4     9 1   
    13     4    17 1   
    14     5     6 1   
    15     5    10 1   
    16     5    18 1   
    17     6    11 1   
    18     6    19 1   
    19     7    12 1   
    20     7    13 1   
    21     8    20 1   
    22     8    21 1   
    23     9    22 1   
    24    10    23 1   
    25    11    24 1   
    26    25    26 1   
@<TRIPOS>SUBSTRUCTURE
     1 L9D         1 TEMP              0 ****  ****    0 ROOT
