@<TRIPOS>MOLECULE
L9D
   26    26     1     0     0
SMALL
No Charge or Current Charge


@<TRIPOS>ATOM
      1 C08          1.2500     1.6040    -0.2540 c6         1 L9D       0.176300
      2 C09         -0.2820     1.4430     0.0720 c6         1 L9D       0.185500
      3 C11         -0.8210     0.0510    -0.3700 c6         1 L9D      -0.195700
      4 C12         -0.0030    -1.1000     0.2760 c6         1 L9D       0.178300
      5 C14          1.5040    -0.9610    -0.1090 c6         1 L9D       0.093300
      6 C16          2.0740     0.4170     0.3450 c6         1 L9D       0.139300
      7 C18         -2.3380    -0.0810    -0.1560 c          1 L9D       0.728000
      8 N10         -0.5520     1.6630     1.5140 n8         1 L9D      -1.038200
      9 O13         -0.4840    -2.3830    -0.1640 oh         1 L9D      -0.703000
     10 O15          2.2770    -2.0390     0.4590 oh         1 L9D      -0.753000
     11 O17          3.4590     0.4990    -0.0520 oh         1 L9D      -0.754000
     12 O19         -3.0530    -0.1730    -1.1420 o          1 L9D      -0.729000
     13 O20         -2.7620    -0.1290     0.9910 o          1 L9D      -0.729000
     14 H1           1.6020     2.5310     0.2230 h1         1 L9D       0.025700
     15 H3          -0.8460     2.2150    -0.4760 h1         1 L9D       0.041700
     16 H4          -0.6740    -0.0040    -1.4570 hc         1 L9D       0.064700
     17 H5          -0.0900    -1.0270     1.3710 h1         1 L9D       0.064700
     18 H6           1.5690    -1.0120    -1.2070 h1         1 L9D       0.046700
     19 H7           1.9950     0.4720     1.4420 h1         1 L9D       0.070700
     20 H8          -0.7660     2.6560     1.6650 hn         1 L9D       0.413500
     21 H9          -1.4460     1.1900     1.7230 hn         1 L9D       0.413500
     22 H11         -1.3810    -2.4970     0.2260 ho         1 L9D       0.476000
     23 H12          1.6900    -2.8300     0.3740 ho         1 L9D       0.497000
     24 H13          3.7930    -0.4210     0.0920 ho         1 L9D       0.510000
     25 O1           1.4980     1.6940    -1.6680 oh         1 L9D      -0.723000
     26 H2           2.4470     1.4320    -1.7460 ho         1 L9D       0.502000
@<TRIPOS>BOND
     1     1     2 1   
     2     1     6 1   
     3     1    14 1   
     4     1    25 1   
     5     2     3 1   
     6     2     8 1   
     7     2    15 1   
     8     3     4 1   
     9     3     7 1   
    10     3    16 1   
    11     4     5 1   
    12     4     9 1   
    13     4    17 1   
    14     5     6 1   
    15     5    10 1   
    16     5    18 1   
    17     6    11 1   
    18     6    19 1   
    19     7    12 1   
    20     7    13 1   
    21     8    20 1   
    22     8    21 1   
    23     9    22 1   
    24    10    23 1   
    25    11    24 1   
    26    25    26 1   
@<TRIPOS>SUBSTRUCTURE
     1 L9D         1 TEMP              0 ****  ****    0 ROOT
