@<TRIPOS>MOLECULE
L9E
   53    55     1     0     0
SMALL
No Charge or Current Charge


@<TRIPOS>ATOM
      1 C1           9.0310   -10.2890    -4.7020 ca         1 L9E       0.176000
      2 C10          3.3440    -7.3600    -5.6400 ca         1 L9E       0.328000
      3 C11          2.1720    -6.7560    -5.1640 ca         1 L9E      -0.177000
      4 C12          1.9620    -5.3800    -5.3510 ca         1 L9E      -0.072000
      5 C13          2.9310    -4.6030    -6.0090 ca         1 L9E      -0.123000
      6 C14          4.1250    -5.1910    -6.4800 ca         1 L9E      -0.094600
      7 C15          5.1460    -4.3430    -7.2170 c          1 L9E       0.606700
      8 C16          7.4520    -4.1280    -8.1490 c3         1 L9E       0.089300
      9 C17          7.1240    -5.2270    -5.8910 c3         1 L9E       0.109000
     10 C18          7.7780    -4.1740    -4.9630 c3         1 L9E      -0.107400
     11 C19          9.1910    -3.7180    -5.3820 c3         1 L9E       0.148800
     12 C2          10.2310   -10.9620    -4.9850 ca         1 L9E      -0.143000
     13 C20          4.2990    -6.5850    -6.3160 ca         1 L9E      -0.152000
     14 C21          6.0720    -9.4390    -5.1300 c          1 L9E       0.552000
     15 C3          10.2800   -12.3640    -4.9410 ca         1 L9E      -0.084000
     16 C4           9.1190   -13.0890    -4.6280 ca         1 L9E      -0.119000
     17 C5           7.9190   -12.4160    -4.3400 ca         1 L9E      -0.090000
     18 C6           7.8700   -11.0040    -4.3120 ca         1 L9E      -0.077000
     19 C7           5.6180   -10.7240    -3.1360 c5         1 L9E       0.111000
     20 C8           4.2630   -10.2140    -3.7110 c5         1 L9E      -0.110400
     21 C9           4.7140    -8.9670    -4.5180 c5         1 L9E       0.153500
     22 F1           9.0300    -8.9360    -4.7240 f          1 L9E      -0.169000
     23 N1           6.5890   -10.3510    -4.1920 n          1 L9E      -0.251400
     24 N3           6.5210    -4.6820    -7.1410 n          1 L9E      -0.407800
     25 N4           9.7860    -2.8320    -4.3660 n8         1 L9E      -0.997200
     26 O1           4.7730    -3.4300    -7.9470 o          1 L9E      -0.588100
     27 O2           6.5880    -9.1430    -6.2030 o          1 L9E      -0.493000
     28 H1           1.4240    -7.3490    -4.6450 ha         1 L9E       0.108000
     29 H2           1.0490    -4.9140    -4.9840 ha         1 L9E       0.112000
     30 H3           2.7570    -3.5380    -6.1460 ha         1 L9E       0.124000
     31 H4           8.4310    -4.6180    -8.0740 h1         1 L9E       0.040367
     32 H5           7.0520    -4.3010    -9.1560 h1         1 L9E       0.040367
     33 H6           7.5710    -3.0480    -7.9920 h1         1 L9E       0.040367
     34 H7           6.3590    -5.7280    -5.2910 h1         1 L9E       0.052200
     35 H8           7.8650    -5.9930    -6.1550 h1         1 L9E       0.052200
     36 H9           7.1130    -3.3070    -4.8730 hc         1 L9E       0.055700
     37 H10          7.8500    -4.6180    -3.9620 hc         1 L9E       0.055700
     38 H11          9.8420    -4.5950    -5.5070 h1         1 L9E       0.029700
     39 H12          9.1530    -3.1720    -6.3330 h1         1 L9E       0.029700
     40 H13         11.1210   -10.3930    -5.2420 ha         1 L9E       0.135000
     41 H14          5.1760    -7.0700    -6.7310 ha         1 L9E       0.128000
     42 H15         11.2070   -12.8870    -5.1650 ha         1 L9E       0.120000
     43 H16          9.1450   -14.1770    -4.6240 ha         1 L9E       0.120000
     44 H17          7.0250   -13.0020    -4.1450 ha         1 L9E       0.121000
     45 H18          5.5930   -11.8020    -2.9360 h1         1 L9E       0.052700
     46 H19          5.8700   -10.2100    -2.1990 h1         1 L9E       0.052700
     47 H20          3.5330    -9.9820    -2.9280 hc         1 L9E       0.063700
     48 H21          3.8260   -10.9850    -4.3580 hc         1 L9E       0.063700
     49 H22          4.9220    -8.1300    -3.8350 h1         1 L9E       0.075700
     50 H23          2.6720    -9.2300    -5.2450 hn         1 L9E       0.482000
     51 H24         10.7010    -2.5050    -4.7010 hn         1 L9E       0.392500
     52 H25          9.2300    -1.9700    -4.3070 hn         1 L9E       0.392500
     53 N2           3.5400    -8.7280    -5.4400 nu         1 L9E      -0.958200
@<TRIPOS>BOND
     1     1    12 ar  
     2     1    18 ar  
     3     1    22 1   
     4     2     3 ar  
     5     2    13 ar  
     6     2    53 1   
     7     3     4 ar  
     8     3    28 1   
     9     4     5 ar  
    10     4    29 1   
    11     5     6 ar  
    12     5    30 1   
    13     6     7 1   
    14     6    13 ar  
    15     7    24 1   
    16     7    26 2   
    17     8    24 1   
    18     8    31 1   
    19     8    32 1   
    20     8    33 1   
    21     9    10 1   
    22     9    24 1   
    23     9    34 1   
    24     9    35 1   
    25    10    11 1   
    26    10    36 1   
    27    10    37 1   
    28    11    25 1   
    29    11    38 1   
    30    11    39 1   
    31    12    15 ar  
    32    12    40 1   
    33    13    41 1   
    34    14    21 1   
    35    14    23 1   
    36    14    27 2   
    37    15    16 ar  
    38    15    42 1   
    39    16    17 ar  
    40    16    43 1   
    41    17    18 ar  
    42    17    44 1   
    43    18    23 1   
    44    19    20 1   
    45    19    23 1   
    46    19    45 1   
    47    19    46 1   
    48    20    21 1   
    49    20    47 1   
    50    20    48 1   
    51    21    49 1   
    52    21    53 1   
    53    25    51 1   
    54    25    52 1   
    55    50    53 1   
@<TRIPOS>SUBSTRUCTURE
     1 L9E         1 TEMP              0 ****  ****    0 ROOT
