@<TRIPOS>MOLECULE
L9E
   53    55     1     0     0
SMALL
abcg2


@<TRIPOS>ATOM
      1 C1           8.5640   -11.6290    -5.6520 ca         1 L9E       0.176000
      2 C10          4.0520    -7.2520    -5.1800 ca         1 L9E       0.328000
      3 C11          2.8360    -6.5520    -5.1710 ca         1 L9E      -0.177000
      4 C12          2.7130    -5.3430    -5.8300 ca         1 L9E      -0.072000
      5 C13          3.7870    -4.7870    -6.5140 ca         1 L9E      -0.123000
      6 C14          4.9990    -5.4650    -6.5180 ca         1 L9E      -0.094600
      7 C15          6.1290    -4.9340    -7.3480 c          1 L9E       0.606700
      8 C16          8.3990    -4.2210    -7.5840 c3         1 L9E       0.089300
      9 C17          7.4230    -4.4820    -5.2930 c3         1 L9E       0.109000
     10 C18          6.9080    -3.1510    -4.7590 c3         1 L9E      -0.107400
     11 C19          7.6440    -1.9260    -5.2800 c3         1 L9E       0.148800
     12 C2           9.4120   -12.5740    -6.1940 ca         1 L9E      -0.143000
     13 C20          5.1310    -6.6900    -5.8730 ca         1 L9E      -0.152000
     14 C21          5.9650   -10.0540    -5.1000 c          1 L9E       0.552000
     15 C3           9.1430   -13.9180    -5.9770 ca         1 L9E      -0.084000
     16 C4           8.0350   -14.2990    -5.2320 ca         1 L9E      -0.119000
     17 C5           7.1840   -13.3340    -4.7130 ca         1 L9E      -0.090000
     18 C6           7.4410   -11.9820    -4.9150 ca         1 L9E      -0.077000
     19 C7           6.4890   -10.7900    -2.9250 c5         1 L9E       0.111000
     20 C8           5.3030    -9.8370    -2.8180 c5         1 L9E      -0.110400
     21 C9           5.3860    -9.0400    -4.1160 c5         1 L9E       0.153500
     22 F1           8.8340   -10.3310    -5.8280 f          1 L9E      -0.169000
     23 N1           6.6070   -10.9950    -4.3650 n          1 L9E      -0.251400
     24 N3           7.2980    -4.6490    -6.7380 n          1 L9E      -0.407800
     25 N4           7.1690    -0.7250    -4.6060 n8         1 L9E      -0.997200
     26 O1           5.9730    -4.8020    -8.5550 o          1 L9E      -0.588100
     27 O2           5.8810   -10.0240    -6.3090 o          1 L9E      -0.493000
     28 H1           1.9870    -6.9650    -4.6380 ha         1 L9E       0.108000
     29 H2           1.7630    -4.8230    -5.8060 ha         1 L9E       0.112000
     30 H3           3.6800    -3.8430    -7.0320 ha         1 L9E       0.124000
     31 H4           9.2920    -4.1200    -6.9730 h1         1 L9E       0.040367
     32 H5           8.6000    -4.9590    -8.3600 h1         1 L9E       0.040367
     33 H6           8.2060    -3.2620    -8.0670 h1         1 L9E       0.040367
     34 H7           6.9070    -5.2930    -4.7840 h1         1 L9E       0.052200
     35 H8           8.4800    -4.5980    -5.0450 h1         1 L9E       0.052200
     36 H9           5.8390    -3.0610    -4.9800 hc         1 L9E       0.055700
     37 H10          6.9980    -3.1760    -3.6690 hc         1 L9E       0.055700
     38 H11          8.7130    -2.0360    -5.0740 h1         1 L9E       0.029700
     39 H12          7.5440    -1.8710    -6.3720 h1         1 L9E       0.029700
     40 H13         10.2760   -12.2600    -6.7650 ha         1 L9E       0.135000
     41 H14          6.0740    -7.2180    -5.9370 ha         1 L9E       0.128000
     42 H15          9.8050   -14.6670    -6.3900 ha         1 L9E       0.120000
     43 H16          7.8260   -15.3460    -5.0630 ha         1 L9E       0.120000
     44 H17          6.3120   -13.6230    -4.1410 ha         1 L9E       0.121000
     45 H18          6.3170   -11.7350    -2.4120 h1         1 L9E       0.052700
     46 H19          7.4050   -10.3460    -2.5260 h1         1 L9E       0.052700
     47 H20          5.3510    -9.2110    -1.9300 hc         1 L9E       0.063700
     48 H21          4.3700   -10.4060    -2.7920 hc         1 L9E       0.063700
     49 H22          6.1510    -8.2590    -3.9950 h1         1 L9E       0.075700
     50 H23          3.3290    -8.7530    -4.0250 hn         1 L9E       0.482000
     51 H24          7.6740     0.0780    -4.9590 hn         1 L9E       0.392500
     52 H25          6.2010    -0.5660    -4.8590 hn         1 L9E       0.392500
     53 N2           4.1480    -8.4550    -4.5300 nu         1 L9E      -0.958200
@<TRIPOS>BOND
     1     1    12 ar  
     2     1    18 ar  
     3     1    22 1   
     4     2     3 ar  
     5     2    13 ar  
     6     2    53 1   
     7     3     4 ar  
     8     3    28 1   
     9     4     5 ar  
    10     4    29 1   
    11     5     6 ar  
    12     5    30 1   
    13     6     7 1   
    14     6    13 ar  
    15     7    24 1   
    16     7    26 2   
    17     8    24 1   
    18     8    31 1   
    19     8    32 1   
    20     8    33 1   
    21     9    10 1   
    22     9    24 1   
    23     9    34 1   
    24     9    35 1   
    25    10    11 1   
    26    10    36 1   
    27    10    37 1   
    28    11    25 1   
    29    11    38 1   
    30    11    39 1   
    31    12    15 ar  
    32    12    40 1   
    33    13    41 1   
    34    14    21 1   
    35    14    23 1   
    36    14    27 2   
    37    15    16 ar  
    38    15    42 1   
    39    16    17 ar  
    40    16    43 1   
    41    17    18 ar  
    42    17    44 1   
    43    18    23 1   
    44    19    20 1   
    45    19    23 1   
    46    19    45 1   
    47    19    46 1   
    48    20    21 1   
    49    20    47 1   
    50    20    48 1   
    51    21    49 1   
    52    21    53 1   
    53    25    51 1   
    54    25    52 1   
    55    50    53 1   
@<TRIPOS>SUBSTRUCTURE
     1 L9E         1 TEMP              0 ****  ****    0 ROOT
