@<TRIPOS>MOLECULE
L9F
   30    32     1     0     0
SMALL
No Charge or Current Charge


@<TRIPOS>ATOM
      1 N1           7.5360    -1.3880    21.5400 ns         1 L9F      -0.519900
      2 C4          10.9800    -0.6260    22.3320 ca         1 L9F      -0.025000
      3 C5          11.8520    -1.5720    21.7490 ca         1 L9F      -0.089000
      4 C6           8.7970    -1.7520    21.9010 c          1 L9F       0.620000
      5 C7           7.4080     0.0690    21.3930 c5         1 L9F       0.086000
      6 C8           8.8650     0.5510    21.6980 c          1 L9F       0.563000
      7 C10          5.6780     1.1310    19.8490 ca         1 L9F      -0.045000
      8 C13          7.7030     0.2540    18.8590 ca         1 L9F       0.359900
      9 C9           6.9220     0.4920    20.0110 ca         1 L9F      -0.163300
     10 C12          6.1230     1.2260    17.4700 ca         1 L9F       0.347900
     11 N            9.5780    -0.6120    21.9880 n          1 L9F      -0.223000
     12 N2           7.3190     0.6110    17.6110 nb         1 L9F      -0.661000
     13 C11          5.2780     1.5020    18.5560 ca         1 L9F      -0.161000
     14 C1          13.7250    -0.6540    23.0050 ca         1 L9F      -0.100000
     15 O1           9.3210     1.6880    21.6560 o          1 L9F      -0.481000
     16 C           13.2150    -1.5830    22.0850 ca         1 L9F       0.131000
     17 C2          12.8670     0.2910    23.5910 ca         1 L9F      -0.093000
     18 O            9.1450    -2.9000    22.1180 o          1 L9F      -0.522000
     19 C3          11.5010     0.3050    23.2560 ca         1 L9F      -0.100000
     20 Cl          14.2900    -2.7640    21.3470 cl         1 L9F      -0.202000
     21 H1           6.8100    -2.0900    21.4490 hn         1 L9F       0.356500
     22 H2          11.4810    -2.2940    21.0270 ha         1 L9F       0.144000
     23 H3           6.7640     0.4860    22.1790 h1         1 L9F       0.085700
     24 H4           5.0360     1.3360    20.7040 ha         1 L9F       0.125000
     25 H5           8.6700    -0.2420    18.9370 h4         1 L9F       0.028100
     26 H6           5.8350     1.5040    16.4570 h4         1 L9F       0.025100
     27 H7           4.3250     1.9980    18.3900 ha         1 L9F       0.130000
     28 H8          14.7810    -0.6660    23.2620 ha         1 L9F       0.133000
     29 H9          13.2580     1.0120    24.3060 ha         1 L9F       0.123000
     30 H10         10.8490     1.0360    23.7280 ha         1 L9F       0.129000
@<TRIPOS>BOND
     1     1     4 1   
     2     1     5 1   
     3     1    21 1   
     4     2     3 ar  
     5     2    11 1   
     6     2    19 ar  
     7     3    16 ar  
     8     3    22 1   
     9     4    11 1   
    10     4    18 2   
    11     5     6 1   
    12     5     9 1   
    13     5    23 1   
    14     6    11 1   
    15     6    15 2   
    16     7     9 ar  
    17     7    13 ar  
    18     7    24 1   
    19     8     9 ar  
    20     8    12 ar  
    21     8    25 1   
    22    10    12 ar  
    23    10    13 ar  
    24    10    26 1   
    25    13    27 1   
    26    14    16 ar  
    27    14    17 ar  
    28    14    28 1   
    29    16    20 1   
    30    17    19 ar  
    31    17    29 1   
    32    19    30 1   
@<TRIPOS>SUBSTRUCTURE
     1 L9F         1 TEMP              0 ****  ****    0 ROOT
