@<TRIPOS>MOLECULE
L9F
   30    32     1     0     0
SMALL
abcg2


@<TRIPOS>ATOM
      1 N1           7.5960    -1.5560    21.4950 ns         1 L9F      -0.519900
      2 C4          10.9500    -0.5960    22.3250 ca         1 L9F      -0.025000
      3 C5          11.8810    -1.3160    21.5840 ca         1 L9F      -0.089000
      4 C6           8.8440    -1.8850    21.8880 c          1 L9F       0.620000
      5 C7           7.3840    -0.1320    21.3610 c5         1 L9F       0.086000
      6 C8           8.7810     0.4200    21.6780 c          1 L9F       0.563000
      7 C10          6.1740     1.5010    19.8760 ca         1 L9F      -0.045000
      8 C13          7.2020    -0.3920    18.8470 ca         1 L9F       0.359900
      9 C9           6.9010     0.3220    20.0040 ca         1 L9F      -0.163300
     10 C12          6.1370     1.1350    17.5170 ca         1 L9F       0.347900
     11 N            9.5740    -0.6670    21.9720 n          1 L9F      -0.223000
     12 N2           6.8310    -0.0020    17.6250 nb         1 L9F      -0.661000
     13 C11          5.7850     1.9160    18.6110 ca         1 L9F      -0.161000
     14 C1          13.6400    -0.4430    23.0050 ca         1 L9F      -0.100000
     15 O1           9.1170     1.5810    21.6580 o          1 L9F      -0.481000
     16 C           13.2170    -1.2320    21.9430 ca         1 L9F       0.131000
     17 C2          12.6920     0.2740    23.7260 ca         1 L9F      -0.093000
     18 O            9.2960    -2.9830    22.1360 o          1 L9F      -0.522000
     19 C3          11.3440     0.1970    23.3970 ca         1 L9F      -0.100000
     20 CL          14.4000    -2.1380    21.0250 cl         1 L9F      -0.202000
     21 H1           6.8560    -2.2380    21.4650 hn         1 L9F       0.356500
     22 H2          11.5670    -1.9240    20.7480 ha         1 L9F       0.144000
     23 H3           6.7050     0.2430    22.1320 h1         1 L9F       0.085700
     24 H4           5.9120     2.0790    20.7540 ha         1 L9F       0.125000
     25 H5           7.7590    -1.3190    18.9120 h4         1 L9F       0.028100
     26 H6           5.8490     1.4320    16.5150 h4         1 L9F       0.025100
     27 H7           5.2160     2.8260    18.4710 ha         1 L9F       0.130000
     28 H8          14.6880    -0.3910    23.2630 ha         1 L9F       0.133000
     29 H9          13.0080     0.8910    24.5560 ha         1 L9F       0.123000
     30 H10         10.6040     0.7440    23.9640 ha         1 L9F       0.129000
@<TRIPOS>BOND
     1     1     4 1   
     2     1     5 1   
     3     1    21 1   
     4     2     3 ar  
     5     2    11 1   
     6     2    19 ar  
     7     3    16 ar  
     8     3    22 1   
     9     4    11 1   
    10     4    18 2   
    11     5     6 1   
    12     5     9 1   
    13     5    23 1   
    14     6    11 1   
    15     6    15 2   
    16     7     9 ar  
    17     7    13 ar  
    18     7    24 1   
    19     8     9 ar  
    20     8    12 ar  
    21     8    25 1   
    22    10    12 ar  
    23    10    13 ar  
    24    10    26 1   
    25    13    27 1   
    26    14    16 ar  
    27    14    17 ar  
    28    14    28 1   
    29    16    20 1   
    30    17    19 ar  
    31    17    29 1   
    32    19    30 1   
@<TRIPOS>SUBSTRUCTURE
     1 L9F         1 TEMP              0 ****  ****    0 ROOT
