@<TRIPOS>MOLECULE
L9G
   47    50     1     0     0
SMALL
No Charge or Current Charge


@<TRIPOS>ATOM
      1 C1          -0.7340     4.0390    -0.6850 cc         1 L9G      -0.074000
      2 C2          -1.9060     3.2500    -0.5790 cc         1 L9G      -0.107000
      3 N3          -1.8270     1.9380    -0.2570 na         1 L9G       0.025200
      4 C4          -0.6670     1.3240     0.2330 cc         1 L9G      -0.087000
      5 C5           0.5030     2.0840     0.1150 cd         1 L9G      -0.114300
      6 C6           0.4690     3.4530    -0.3690 cd         1 L9G      -0.092000
      7 C7          -3.0890     1.4200    -0.1390 cc         1 L9G       0.363400
      8 N8          -3.1800     3.5480    -0.7550 nd         1 L9G      -0.095000
      9 N9          -3.9230     2.4010    -0.4760 nd         1 L9G      -0.344700
     10 C10          1.8280     1.4880     0.5220 c3         1 L9G      -0.021100
     11 C11          2.6000     0.9050    -0.6790 c3         1 L9G      -0.022100
     12 C12          3.9350     0.2910    -0.2640 ca         1 L9G      -0.138300
     13 C13          4.0050    -1.0250     0.2440 ca         1 L9G       0.202000
     14 C14          5.2350    -1.5790     0.6270 ca         1 L9G      -0.196000
     15 C15          6.4050    -0.8190     0.5060 ca         1 L9G       0.199000
     16 C16          6.3520     0.4900     0.0050 ca         1 L9G      -0.167000
     17 C17          5.1190     1.0470    -0.3790 ca         1 L9G      -0.058000
     18 F18          2.8830    -1.7690     0.3710 f          1 L9G      -0.172000
     19 F19          7.5910    -1.3500     0.8740 f          1 L9G      -0.171000
     20 C20         -3.4490     0.0290     0.1800 ca         1 L9G      -0.116900
     21 C21         -2.7670    -1.0200    -0.4760 ca         1 L9G      -0.044000
     22 C22         -3.0950    -2.3740    -0.2440 ca         1 L9G      -0.161600
     23 C23         -4.1410    -2.6690     0.6570 ca         1 L9G      -0.067000
     24 C24         -4.8380    -1.6330     1.2980 ca         1 L9G      -0.130000
     25 C25         -4.5090    -0.2850     1.0670 ca         1 L9G      -0.005300
     26 C26         -2.3280    -3.4600    -0.9670 c          1 L9G       0.620700
     27 N27         -2.6610    -4.7470    -0.7300 nt         1 L9G      -0.602000
     28 O28         -1.4260    -3.2190    -1.7520 o          1 L9G      -0.607100
     29 C29         -5.2860     0.7960     1.8130 c3         1 L9G      -0.057800
     30 H1          -0.8010     5.0790    -0.9920 ha         1 L9G       0.148000
     31 H4          -0.7280     0.3160     0.6230 h4         1 L9G       0.157000
     32 H6           1.3850     4.0310    -0.4450 ha         1 L9G       0.124000
     33 H10          2.4490     2.2490     1.0110 hc         1 L9G       0.056700
     34 H10A         1.6740     0.6980     1.2680 hc         1 L9G       0.056700
     35 H11          1.9740     0.1540    -1.1770 hc         1 L9G       0.060200
     36 H11A         2.7610     1.6990    -1.4180 hc         1 L9G       0.060200
     37 H14          5.2790    -2.5910     1.0170 ha         1 L9G       0.151000
     38 H16          7.2660     1.0720    -0.0840 ha         1 L9G       0.138000
     39 H17          5.0860     2.0640    -0.7640 ha         1 L9G       0.120000
     40 H21         -1.9800    -0.7780    -1.1880 ha         1 L9G       0.144000
     41 H23         -4.4320    -3.6950     0.8670 ha         1 L9G       0.108000
     42 H24         -5.6440    -1.8860     1.9840 ha         1 L9G       0.120000
     43 HN27        -3.4030    -4.9690    -0.0860 hn         1 L9G       0.315500
     44 HN2A        -2.1570    -5.4800    -1.2060 hn         1 L9G       0.315500
     45 H29         -5.9970     1.3000     1.1480 hc         1 L9G       0.056367
     46 H29A        -5.8600     0.3790     2.6490 hc         1 L9G       0.056367
     47 H29B        -4.6150     1.5540     2.2330 hc         1 L9G       0.056367
@<TRIPOS>BOND
     1     1     2 1   
     2     1     6 2   
     3     1    30 1   
     4     2     3 1   
     5     2     8 2   
     6     3     4 1   
     7     3     7 1   
     8     4     5 2   
     9     4    31 1   
    10     5     6 1   
    11     5    10 1   
    12     6    32 1   
    13     7     9 2   
    14     7    20 1   
    15     8     9 1   
    16    10    11 1   
    17    10    33 1   
    18    10    34 1   
    19    11    12 1   
    20    11    35 1   
    21    11    36 1   
    22    12    13 ar  
    23    12    17 ar  
    24    13    14 ar  
    25    13    18 1   
    26    14    15 ar  
    27    14    37 1   
    28    15    16 ar  
    29    15    19 1   
    30    16    17 ar  
    31    16    38 1   
    32    17    39 1   
    33    20    21 ar  
    34    20    25 ar  
    35    21    22 ar  
    36    21    40 1   
    37    22    23 ar  
    38    22    26 1   
    39    23    24 ar  
    40    23    41 1   
    41    24    25 ar  
    42    24    42 1   
    43    25    29 1   
    44    26    27 1   
    45    26    28 2   
    46    27    43 1   
    47    27    44 1   
    48    29    45 1   
    49    29    46 1   
    50    29    47 1   
@<TRIPOS>SUBSTRUCTURE
     1 L9G         1 TEMP              0 ****  ****    0 ROOT
