@<TRIPOS>MOLECULE
L9G
   47    50     1     0     0
SMALL
bcc


@<TRIPOS>ATOM
      1 C1          -0.6610     3.8480    -0.6460 cc         1 L9G      -0.092000
      2 C2          -1.8620     3.1050    -0.5840 cc         1 L9G      -0.056300
      3 N3          -1.8110     1.7990    -0.1620 na         1 L9G      -0.076200
      4 C4          -0.6470     1.1890     0.2300 cc         1 L9G      -0.054300
      5 C5           0.5150     1.8810     0.1760 cd         1 L9G      -0.114300
      6 C6           0.4940     3.2380    -0.2790 cd         1 L9G      -0.110000
      7 C7          -3.1070     1.3630    -0.2120 cc         1 L9G       0.363400
      8 N8          -3.1070     3.4280    -0.8640 nd         1 L9G      -0.095000
      9 N9          -3.8620     2.3450    -0.6300 nd         1 L9G      -0.344700
     10 C10          1.8160     1.2400     0.5610 c3         1 L9G      -0.021100
     11 C11          2.6860     0.9460    -0.6700 c3         1 L9G      -0.022100
     12 C12          4.0310     0.3970    -0.2940 ca         1 L9G      -0.138300
     13 C13          4.2200    -0.9430     0.0110 ca         1 L9G       0.166900
     14 C14          5.4380    -1.4790     0.3830 ca         1 L9G      -0.214000
     15 C15          6.5140    -0.6150     0.4540 ca         1 L9G       0.163900
     16 C16          6.3980     0.7300     0.1670 ca         1 L9G      -0.185000
     17 C17          5.1520     1.2170    -0.2010 ca         1 L9G      -0.076000
     18 F18          3.1680    -1.7730    -0.0600 f          1 L9G      -0.136900
     19 F19          7.7090    -1.1100     0.8060 f          1 L9G      -0.135900
     20 C20         -3.5380     0.0040     0.1260 ca         1 L9G      -0.116900
     21 C21         -2.9140    -1.0720    -0.4950 ca         1 L9G      -0.062000
     22 C22         -3.2800    -2.3840    -0.2180 ca         1 L9G      -0.161600
     23 C23         -4.3120    -2.6010     0.6900 ca         1 L9G      -0.085000
     24 C24         -4.9420    -1.5320     1.3040 ca         1 L9G      -0.148000
     25 C25         -4.5720    -0.2150     1.0480 ca         1 L9G      -0.005300
     26 C26         -2.5420    -3.4730    -0.9350 c          1 L9G       0.687700
     27 N27         -2.8080    -4.7330    -0.5700 nt         1 L9G      -0.669000
     28 O28         -1.7320    -3.2010    -1.8120 o          1 L9G      -0.607100
     29 C29         -5.2700     0.9100     1.7500 c3         1 L9G      -0.057800
     30 H1          -0.6920     4.8760    -0.9770 ha         1 L9G       0.166000
     31 H4          -0.7220     0.1680     0.5760 h4         1 L9G       0.175000
     32 H6           1.4240     3.7920    -0.3170 ha         1 L9G       0.142000
     33 H10          2.3610     1.9070     1.2340 hc         1 L9G       0.056700
     34 H10A         1.6280     0.3190     1.1150 hc         1 L9G       0.056700
     35 H11          2.1550     0.2580    -1.3310 hc         1 L9G       0.060200
     36 H11A         2.8310     1.8660    -1.2400 hc         1 L9G       0.060200
     37 H14          5.5430    -2.5320     0.6070 ha         1 L9G       0.169000
     38 H16          7.2580     1.3850     0.2220 ha         1 L9G       0.156000
     39 H17          5.0480     2.2700    -0.4320 ha         1 L9G       0.138000
     40 H21         -2.1330    -0.8930    -1.2250 ha         1 L9G       0.162000
     41 H23         -4.6610    -3.5970     0.9320 ha         1 L9G       0.126000
     42 H24         -5.7410    -1.7250     2.0100 ha         1 L9G       0.138000
     43 HN27        -3.4370    -4.9770     0.1750 hn         1 L9G       0.315500
     44 HN2A        -2.3250    -5.4930    -1.0200 hn         1 L9G       0.315500
     45 H29         -5.8840     1.4880     1.0600 hc         1 L9G       0.056367
     46 H29A        -5.9150     0.5290     2.5390 hc         1 L9G       0.056367
     47 H29B        -4.5580     1.6030     2.2000 hc         1 L9G       0.056367
@<TRIPOS>BOND
     1     1     2 1   
     2     1     6 2   
     3     1    30 1   
     4     2     3 1   
     5     2     8 2   
     6     3     4 1   
     7     3     7 1   
     8     4     5 2   
     9     4    31 1   
    10     5     6 1   
    11     5    10 1   
    12     6    32 1   
    13     7     9 2   
    14     7    20 1   
    15     8     9 1   
    16    10    11 1   
    17    10    33 1   
    18    10    34 1   
    19    11    12 1   
    20    11    35 1   
    21    11    36 1   
    22    12    13 ar  
    23    12    17 ar  
    24    13    14 ar  
    25    13    18 1   
    26    14    15 ar  
    27    14    37 1   
    28    15    16 ar  
    29    15    19 1   
    30    16    17 ar  
    31    16    38 1   
    32    17    39 1   
    33    20    21 ar  
    34    20    25 ar  
    35    21    22 ar  
    36    21    40 1   
    37    22    23 ar  
    38    22    26 1   
    39    23    24 ar  
    40    23    41 1   
    41    24    25 ar  
    42    24    42 1   
    43    25    29 1   
    44    26    27 1   
    45    26    28 2   
    46    27    43 1   
    47    27    44 1   
    48    29    45 1   
    49    29    46 1   
    50    29    47 1   
@<TRIPOS>SUBSTRUCTURE
     1 L9G         1 TEMP              0 ****  ****    0 ROOT
