@<TRIPOS>MOLECULE
L9H
  146   146     1     0     0
SMALL
No Charge or Current Charge


@<TRIPOS>ATOM
      1 C5         132.1710   130.6320   120.3730 c6         1 L9H       0.180300
      2 O6         133.2350   131.0380   119.4850 oh         1 L9H      -0.715000
      3 C2         131.2720   131.8740   120.6800 c6         1 L9H       0.157300
      4 O1         130.7200   132.3980   119.4590 oh         1 L9H      -0.718500
      5 C3         130.1020   131.5450   121.6600 c6         1 L9H       0.129300
      6 O4         129.1020   130.7510   120.9920 oh         1 L9H      -0.727500
      7 C7         132.7120   130.0090   121.7050 c6         1 L9H       0.157300
      8 O8         133.5100   128.8300   121.4870 oh         1 L9H      -0.718500
      9 C9         131.5120   129.6180   122.6120 c6         1 L9H       0.129300
     10 O10        131.9610   128.9690   123.8160 oh         1 L9H      -0.727500
     11 CA4        130.6390   130.8530   122.9690 c6         1 L9H       0.169300
     12 OA5        129.6290   130.4140   123.9210 os         1 L9H      -0.606400
     13 PA6        128.3020   131.2600   124.2740 p5         1 L9H       1.375800
     14 OA7        127.4080   130.7720   123.0180 os         1 L9H      -0.600400
     15 CA8        126.7470   129.4900   123.0050 c3         1 L9H       0.209600
     16 CA9        125.4680   129.4940   123.9000 c3         1 L9H       0.102300
     17 OB0        124.7140   128.2860   123.6130 os         1 L9H      -0.453100
     18 CB1        125.1830   127.0810   124.0770 c          1 L9H       0.582100
     19 CB2        124.3610   125.8990   123.5490 c3         1 L9H      -0.139400
     20 CB3        123.4610   125.2800   124.6430 c3         1 L9H      -0.064400
     21 CB4        122.2400   126.1530   125.0210 c3         1 L9H      -0.077400
     22 CB5        121.4900   125.6980   126.2960 c3         1 L9H      -0.077400
     23 CB6        121.0410   124.2190   126.3020 c3         1 L9H      -0.073400
     24 CB7        120.1430   123.8780   127.5110 c3         1 L9H      -0.079400
     25 CB8        119.7790   122.3800   127.5940 c3         1 L9H      -0.074400
     26 CB9        118.8100   122.0620   128.7570 c3         1 L9H      -0.073400
     27 CC0        118.4560   120.5630   128.9030 c3         1 L9H      -0.071400
     28 CC1        119.6360   119.6810   129.3740 c3         1 L9H      -0.075400
     29 CC2        119.2480   118.2020   129.5830 c3         1 L9H      -0.075400
     30 CC3        120.4350   117.3350   130.0580 c3         1 L9H      -0.075400
     31 CC4        120.0570   115.8530   130.2670 c3         1 L9H      -0.075400
     32 CC5        121.2490   114.9880   130.7400 c3         1 L9H      -0.073400
     33 CC6        120.8920   113.5140   131.0440 c3         1 L9H      -0.073400
     34 CC7        120.4490   112.6930   129.8100 c3         1 L9H      -0.076400
     35 CC8        120.1870   111.2110   130.1370 c3         1 L9H      -0.089100
     36 OC9        126.1860   126.9470   124.7630 o          1 L9H      -0.470000
     37 CD0        124.5430   130.7090   123.5930 c3         1 L9H       0.161600
     38 OD1        123.4820   130.8290   124.5720 os         1 L9H      -0.465000
     39 CD2        123.8940   131.1790   125.9090 c3         1 L9H       0.151600
     40 CD3        122.6520   131.6440   126.7040 c3         1 L9H      -0.070400
     41 CD4        121.4750   130.6330   126.7770 c3         1 L9H      -0.060400
     42 CD5        121.7840   129.2360   127.3760 c3         1 L9H      -0.075400
     43 CD6        121.7440   129.1040   128.9190 c3         1 L9H      -0.071400
     44 CD7        122.7870   129.9490   129.6900 c3         1 L9H      -0.075400
     45 CD8        122.9440   129.5720   131.1870 c3         1 L9H      -0.067400
     46 CD9        123.5980   128.1970   131.5050 c3         1 L9H      -0.069400
     47 CE0        125.1500   128.1640   131.5490 c3         1 L9H      -0.071400
     48 CE1        125.9070   128.4130   130.2190 c3         1 L9H      -0.067400
     49 CE2        125.5200   127.4880   129.0370 c3         1 L9H      -0.085400
     50 CE3        125.7880   125.9870   129.2860 c3         1 L9H      -0.066400
     51 CE4        125.4270   125.1140   128.0650 c3         1 L9H      -0.080400
     52 CE5        125.7640   123.6100   128.2170 c3         1 L9H      -0.071400
     53 CE6        125.0250   122.8590   129.3520 c3         1 L9H      -0.071400
     54 CE7        123.4850   122.8070   129.1920 c3         1 L9H      -0.077400
     55 CE8        122.7550   122.0300   130.3130 c3         1 L9H      -0.074400
     56 CE9        123.0700   120.5190   130.3550 c3         1 L9H      -0.088100
     57 OF0        128.5630   132.7250   124.2280 o          1 L9H      -0.795000
     58 OF1        127.7190   130.8420   125.5770 o          1 L9H      -0.795000
     59 H1         131.5440   129.8750   119.8780 h1         1 L9H       0.067700
     60 H2         132.8110   131.6890   118.8760 ho         1 L9H       0.508000
     61 H3         131.9030   132.6400   121.1580 h1         1 L9H       0.043200
     62 H4         129.8320   131.9640   119.4050 ho         1 L9H       0.508500
     63 H5         129.6610   132.5110   121.9440 h1         1 L9H       0.045700
     64 H6         128.3580   130.6710   121.6540 ho         1 L9H       0.528500
     65 H7         133.3090   130.7700   122.2300 h1         1 L9H       0.043200
     66 H8         133.4220   128.3340   122.3380 ho         1 L9H       0.508500
     67 H9         130.8750   128.9190   122.0470 h1         1 L9H       0.045700
     68 H10        131.2020   129.0840   124.4420 ho         1 L9H       0.528500
     69 H11        131.2810   131.5830   123.4860 h1         1 L9H       0.064700
     70 H12        126.4540   129.2440   121.9760 h1         1 L9H       0.029200
     71 H13        127.4360   128.7080   123.3450 h1         1 L9H       0.029200
     72 H14        125.7670   129.5180   124.9530 h1         1 L9H       0.105700
     73 H15        123.7230   126.2280   122.7200 hc         1 L9H       0.063700
     74 H16        125.0560   125.1260   123.2020 hc         1 L9H       0.063700
     75 H17        123.1000   124.3070   124.2860 hc         1 L9H       0.045700
     76 H18        124.0670   125.0790   125.5320 hc         1 L9H       0.045700
     77 H19        122.5660   127.1900   125.1690 hc         1 L9H       0.046200
     78 H20        121.5390   126.1670   124.1780 hc         1 L9H       0.046200
     79 H21        122.1220   125.8850   127.1720 hc         1 L9H       0.041700
     80 H22        120.6020   126.3310   126.4130 hc         1 L9H       0.041700
     81 H23        120.4970   124.0000   125.3760 hc         1 L9H       0.034700
     82 H24        121.9260   123.5710   126.3200 hc         1 L9H       0.034700
     83 H25        120.6530   124.1730   128.4370 hc         1 L9H       0.038200
     84 H26        119.2220   124.4720   127.4510 hc         1 L9H       0.038200
     85 H27        119.3200   122.0650   126.6480 hc         1 L9H       0.035700
     86 H28        120.7040   121.8040   127.7090 hc         1 L9H       0.035700
     87 H29        119.2360   122.4240   129.7000 hc         1 L9H       0.037700
     88 H30        117.8800   122.6230   128.6000 hc         1 L9H       0.037700
     89 H31        118.0730   120.1850   127.9470 hc         1 L9H       0.034200
     90 H32        117.6380   120.4700   129.6280 hc         1 L9H       0.034200
     91 H33        120.0280   120.0840   130.3150 hc         1 L9H       0.039700
     92 H34        120.4470   119.7290   128.6390 hc         1 L9H       0.039700
     93 H35        118.8570   117.7950   128.6420 hc         1 L9H       0.034700
     94 H36        118.4390   118.1410   130.3220 hc         1 L9H       0.034700
     95 H37        120.8250   117.7440   130.9990 hc         1 L9H       0.037700
     96 H38        121.2460   117.4000   129.3210 hc         1 L9H       0.037700
     97 H39        119.6640   115.4540   129.3240 hc         1 L9H       0.036200
     98 H40        119.2490   115.7880   131.0060 hc         1 L9H       0.036200
     99 H41        121.6680   115.4350   131.6510 hc         1 L9H       0.037700
    100 H42        122.0440   115.0190   129.9840 hc         1 L9H       0.037700
    101 H43        121.7710   113.0320   131.4890 hc         1 L9H       0.035700
    102 H44        120.1010   113.4830   131.8040 hc         1 L9H       0.035700
    103 H45        121.2220   112.7560   129.0340 hc         1 L9H       0.038200
    104 H46        119.5330   113.1230   129.3870 hc         1 L9H       0.038200
    105 H47        119.8740   110.6700   129.2350 hc         1 L9H       0.029700
    106 H48        121.0930   110.7320   130.5260 hc         1 L9H       0.029700
    107 H49        119.3930   111.1130   130.8880 hc         1 L9H       0.029700
    108 H50        125.1360   131.6330   123.5770 h1         1 L9H       0.063700
    109 H51        124.1190   130.5820   122.5890 h1         1 L9H       0.063700
    110 H52        124.3610   130.3260   126.4170 h1         1 L9H       0.034200
    111 H53        124.6220   132.0010   125.8880 h1         1 L9H       0.034200
    112 H54        122.9720   131.9270   127.7100 hc         1 L9H       0.037200
    113 H55        122.2800   132.5670   126.2440 hc         1 L9H       0.037200
    114 H56        120.6490   131.0880   127.3390 hc         1 L9H       0.033200
    115 H57        121.0940   130.4870   125.7590 hc         1 L9H       0.033200
    116 H58        121.0260   128.5490   126.9820 hc         1 L9H       0.042200
    117 H59        122.7430   128.8630   127.0010 hc         1 L9H       0.042200
    118 H60        120.7410   129.3630   129.2780 hc         1 L9H       0.028700
    119 H61        121.8860   128.0440   129.1550 hc         1 L9H       0.028700
    120 H62        123.7510   129.9040   129.1780 hc         1 L9H       0.043700
    121 H63        122.4670   130.9970   129.6560 hc         1 L9H       0.043700
    122 H64        123.5170   130.3590   131.6920 hc         1 L9H       0.026200
    123 H65        121.9460   129.5910   131.6420 hc         1 L9H       0.026200
    124 H66        123.2480   127.8980   132.5010 hc         1 L9H       0.031700
    125 H67        123.2260   127.4220   130.8270 hc         1 L9H       0.031700
    126 H68        125.4930   128.9040   132.2830 hc         1 L9H       0.026200
    127 H69        125.4590   127.1900   131.9470 hc         1 L9H       0.026200
    128 H70        125.7800   129.4590   129.9200 hc         1 L9H       0.042700
    129 H71        126.9810   128.2960   130.4110 hc         1 L9H       0.042700
    130 H72        124.4620   127.6280   128.7850 hc         1 L9H       0.060700
    131 H73        126.0870   127.8060   128.1530 hc         1 L9H       0.060700
    132 H74        126.8470   125.8440   129.5350 hc         1 L9H       0.025700
    133 H75        125.2020   125.6540   130.1500 hc         1 L9H       0.025700
    134 H76        124.3600   125.2320   127.8450 hc         1 L9H       0.051200
    135 H77        125.9670   125.4950   127.1900 hc         1 L9H       0.051200
    136 H78        125.5460   123.1080   127.2660 hc         1 L9H       0.033200
    137 H79        126.8440   123.5080   128.3760 hc         1 L9H       0.033200
    138 H80        125.4160   121.8350   129.3780 hc         1 L9H       0.030700
    139 H81        125.2780   123.3080   130.3200 hc         1 L9H       0.030700
    140 H82        123.2340   122.3610   128.2220 hc         1 L9H       0.040700
    141 H83        123.0900   123.8290   129.1800 hc         1 L9H       0.040700
    142 H84        122.9990   122.4770   131.2850 hc         1 L9H       0.033200
    143 H85        121.6750   122.1560   130.1760 hc         1 L9H       0.033200
    144 H86        122.4480   120.0230   131.1100 hc         1 L9H       0.027033
    145 H87        122.8660   120.0520   129.3840 hc         1 L9H       0.027033
    146 H88        124.1190   120.3400   130.6150 hc         1 L9H       0.027033
@<TRIPOS>BOND
     1     1     2 1   
     2     1     3 1   
     3     1     7 1   
     4     1    59 1   
     5     2    60 1   
     6     3     4 1   
     7     3     5 1   
     8     3    61 1   
     9     4    62 1   
    10     5     6 1   
    11     5    11 1   
    12     5    63 1   
    13     6    64 1   
    14     7     8 1   
    15     7     9 1   
    16     7    65 1   
    17     8    66 1   
    18     9    10 1   
    19     9    11 1   
    20     9    67 1   
    21    10    68 1   
    22    11    12 1   
    23    11    69 1   
    24    12    13 1   
    25    13    14 1   
    26    13    57 1   
    27    13    58 1   
    28    14    15 1   
    29    15    16 1   
    30    15    70 1   
    31    15    71 1   
    32    16    17 1   
    33    16    37 1   
    34    16    72 1   
    35    17    18 1   
    36    18    19 1   
    37    18    36 2   
    38    19    20 1   
    39    19    73 1   
    40    19    74 1   
    41    20    21 1   
    42    20    75 1   
    43    20    76 1   
    44    21    22 1   
    45    21    77 1   
    46    21    78 1   
    47    22    23 1   
    48    22    79 1   
    49    22    80 1   
    50    23    24 1   
    51    23    81 1   
    52    23    82 1   
    53    24    25 1   
    54    24    83 1   
    55    24    84 1   
    56    25    26 1   
    57    25    85 1   
    58    25    86 1   
    59    26    27 1   
    60    26    87 1   
    61    26    88 1   
    62    27    28 1   
    63    27    89 1   
    64    27    90 1   
    65    28    29 1   
    66    28    91 1   
    67    28    92 1   
    68    29    30 1   
    69    29    93 1   
    70    29    94 1   
    71    30    31 1   
    72    30    95 1   
    73    30    96 1   
    74    31    32 1   
    75    31    97 1   
    76    31    98 1   
    77    32    33 1   
    78    32    99 1   
    79    32   100 1   
    80    33    34 1   
    81    33   101 1   
    82    33   102 1   
    83    34    35 1   
    84    34   103 1   
    85    34   104 1   
    86    35   105 1   
    87    35   106 1   
    88    35   107 1   
    89    37    38 1   
    90    37   108 1   
    91    37   109 1   
    92    38    39 1   
    93    39    40 1   
    94    39   110 1   
    95    39   111 1   
    96    40    41 1   
    97    40   112 1   
    98    40   113 1   
    99    41    42 1   
   100    41   114 1   
   101    41   115 1   
   102    42    43 1   
   103    42   116 1   
   104    42   117 1   
   105    43    44 1   
   106    43   118 1   
   107    43   119 1   
   108    44    45 1   
   109    44   120 1   
   110    44   121 1   
   111    45    46 1   
   112    45   122 1   
   113    45   123 1   
   114    46    47 1   
   115    46   124 1   
   116    46   125 1   
   117    47    48 1   
   118    47   126 1   
   119    47   127 1   
   120    48    49 1   
   121    48   128 1   
   122    48   129 1   
   123    49    50 1   
   124    49   130 1   
   125    49   131 1   
   126    50    51 1   
   127    50   132 1   
   128    50   133 1   
   129    51    52 1   
   130    51   134 1   
   131    51   135 1   
   132    52    53 1   
   133    52   136 1   
   134    52   137 1   
   135    53    54 1   
   136    53   138 1   
   137    53   139 1   
   138    54    55 1   
   139    54   140 1   
   140    54   141 1   
   141    55    56 1   
   142    55   142 1   
   143    55   143 1   
   144    56   144 1   
   145    56   145 1   
   146    56   146 1   
@<TRIPOS>SUBSTRUCTURE
     1 L9H         1 TEMP              0 ****  ****    0 ROOT
