@<TRIPOS>MOLECULE
L9H
  146   146     1     0     0
SMALL
abcg2


@<TRIPOS>ATOM
      1 C5         132.1960   129.4020   120.9440 c6         1 L9H       0.180300
      2 O6         132.9730   129.6210   119.7930 oh         1 L9H      -0.715000
      3 C2         130.7130   129.3080   120.5880 c6         1 L9H       0.157300
      4 O1         130.5750   128.2390   119.6810 oh         1 L9H      -0.718500
      5 C3         129.8310   129.1410   121.8200 c6         1 L9H       0.129300
      6 O4         130.1040   127.9000   122.4230 oh         1 L9H      -0.727500
      7 C7         132.4230   130.5630   121.8990 c6         1 L9H       0.157300
      8 O8         133.7880   130.6010   122.2320 oh         1 L9H      -0.718500
      9 C9         131.5580   130.4080   123.1470 c6         1 L9H       0.129300
     10 O10        131.8150   131.5340   123.9550 oh         1 L9H      -0.727500
     11 CA4        130.0810   130.3030   122.7800 c6         1 L9H       0.169300
     12 OA5        129.3450   130.0930   123.9730 os         1 L9H      -0.606400
     13 PA6        128.0310   131.0200   124.3490 p5         1 L9H       1.375800
     14 OA7        127.0060   130.6410   123.1160 os         1 L9H      -0.600400
     15 CA8        126.3670   129.3840   123.0680 c3         1 L9H       0.209600
     16 CA9        125.0300   129.4280   123.8070 c3         1 L9H       0.102300
     17 OB0        124.3690   128.1610   123.6690 os         1 L9H      -0.453100
     18 CB1        124.6880   127.1700   124.4970 c          1 L9H       0.582100
     19 CB2        123.8950   125.9190   124.2120 c3         1 L9H      -0.139400
     20 CB3        123.6620   125.0580   125.4490 c3         1 L9H      -0.064400
     21 CB4        122.7340   125.7220   126.4600 c3         1 L9H      -0.077400
     22 CB5        122.5560   124.9430   127.7570 c3         1 L9H      -0.077400
     23 CB6        121.8590   123.5960   127.6200 c3         1 L9H      -0.073400
     24 CB7        121.6860   122.8960   128.9630 c3         1 L9H      -0.079400
     25 CB8        120.9660   121.5580   128.8710 c3         1 L9H      -0.074400
     26 CB9        120.8560   120.8580   130.2220 c3         1 L9H      -0.073400
     27 CC0        120.0240   119.5790   130.2090 c3         1 L9H      -0.071400
     28 CC1        120.5690   118.4790   129.3050 c3         1 L9H      -0.075400
     29 CC2        119.7970   117.1720   129.4330 c3         1 L9H      -0.075400
     30 CC3        120.3010   116.0790   128.5000 c3         1 L9H      -0.075400
     31 CC4        119.5360   114.7690   128.6430 c3         1 L9H      -0.075400
     32 CC5        120.0190   113.6890   127.6820 c3         1 L9H      -0.073400
     33 CC6        119.3280   112.3380   127.8550 c3         1 L9H      -0.073400
     34 CC7        117.8380   112.3450   127.5340 c3         1 L9H      -0.076400
     35 CC8        117.2080   110.9630   127.6510 c3         1 L9H      -0.089100
     36 OC9        125.5340   127.2600   125.3520 o          1 L9H      -0.470000
     37 CD0        124.0940   130.4650   123.2090 c3         1 L9H       0.161600
     38 OD1        122.8860   130.5990   123.9070 os         1 L9H      -0.465000
     39 CD2        122.9830   131.3460   125.1000 c3         1 L9H       0.151600
     40 CD3        121.5990   131.5420   125.6870 c3         1 L9H      -0.070400
     41 CD4        120.8060   130.2530   125.9190 c3         1 L9H      -0.060400
     42 CD5        121.4980   129.1390   126.7100 c3         1 L9H      -0.075400
     43 CD6        121.4380   129.2420   128.2320 c3         1 L9H      -0.071400
     44 CD7        122.0440   130.5060   128.8300 c3         1 L9H      -0.075400
     45 CD8        122.1560   130.4680   130.3550 c3         1 L9H      -0.067400
     46 CD9        123.2070   129.5290   130.9530 c3         1 L9H      -0.069400
     47 CE0        124.6320   130.0840   131.0100 c3         1 L9H      -0.071400
     48 CE1        125.3820   130.2110   129.6830 c3         1 L9H      -0.067400
     49 CE2        125.4800   128.9220   128.8690 c3         1 L9H      -0.085400
     50 CE3        126.1540   127.7770   129.6180 c3         1 L9H      -0.066400
     51 CE4        126.2880   126.5120   128.7810 c3         1 L9H      -0.080400
     52 CE5        127.0100   125.3650   129.4850 c3         1 L9H      -0.071400
     53 CE6        126.4030   124.9110   130.8130 c3         1 L9H      -0.071400
     54 CE7        124.9340   124.5200   130.7150 c3         1 L9H      -0.077400
     55 CE8        124.3430   123.9450   131.9990 c3         1 L9H      -0.074400
     56 CE9        124.8840   122.5700   132.3670 c3         1 L9H      -0.088100
     57 OF0        128.3430   132.4660   124.1500 o          1 L9H      -0.795000
     58 OF1        127.5330   130.4640   125.6440 o          1 L9H      -0.795000
     59 H1         132.5000   128.4710   121.4480 h1         1 L9H       0.067700
     60 H2         132.7520   128.9310   119.1580 ho         1 L9H       0.508000
     61 H3         130.4230   130.2580   120.1160 h1         1 L9H       0.043200
     62 H4         129.7470   128.3430   119.2010 ho         1 L9H       0.508500
     63 H5         128.7820   129.1900   121.4900 h1         1 L9H       0.045700
     64 H6         129.5940   127.8570   123.2400 ho         1 L9H       0.528500
     65 H7         132.1200   131.4920   121.3880 h1         1 L9H       0.043200
     66 H8         133.9120   131.3010   122.8820 ho         1 L9H       0.508500
     67 H9         131.8620   129.4850   123.6620 h1         1 L9H       0.045700
     68 H10        131.4140   131.3910   124.8180 ho         1 L9H       0.528500
     69 H11        129.7790   131.2350   122.2860 h1         1 L9H       0.064700
     70 H12        126.1920   129.1450   122.0150 h1         1 L9H       0.029200
     71 H13        126.9940   128.5860   123.4800 h1         1 L9H       0.029200
     72 H14        125.2130   129.6330   124.8650 h1         1 L9H       0.105700
     73 H15        122.9470   126.1790   123.7370 hc         1 L9H       0.063700
     74 H16        124.4630   125.3530   123.4650 hc         1 L9H       0.063700
     75 H17        123.2390   124.1060   125.1210 hc         1 L9H       0.045700
     76 H18        124.6180   124.8180   125.9210 hc         1 L9H       0.045700
     77 H19        123.1270   126.7110   126.7120 hc         1 L9H       0.046200
     78 H20        121.7590   125.8960   125.9940 hc         1 L9H       0.046200
     79 H21        123.5380   124.7950   128.2170 hc         1 L9H       0.041700
     80 H22        121.9900   125.5630   128.4610 hc         1 L9H       0.041700
     81 H23        120.8790   123.7380   127.1510 hc         1 L9H       0.034700
     82 H24        122.4250   122.9440   126.9480 hc         1 L9H       0.034700
     83 H25        122.6730   122.7450   129.4180 hc         1 L9H       0.038200
     84 H26        121.1400   123.5550   129.6480 hc         1 L9H       0.038200
     85 H27        119.9630   121.7100   128.4570 hc         1 L9H       0.035700
     86 H28        121.4930   120.9160   128.1580 hc         1 L9H       0.035700
     87 H29        121.8620   120.6330   130.5930 hc         1 L9H       0.037700
     88 H30        120.4180   121.5550   130.9450 hc         1 L9H       0.037700
     89 H31        118.9970   119.8160   129.9100 hc         1 L9H       0.034200
     90 H32        119.9570   119.1940   131.2320 hc         1 L9H       0.034200
     91 H33        121.6240   118.3040   129.5420 hc         1 L9H       0.039700
     92 H34        120.5450   118.8080   128.2610 hc         1 L9H       0.039700
     93 H35        118.7360   117.3570   129.2310 hc         1 L9H       0.034700
     94 H36        119.8490   116.8200   130.4690 hc         1 L9H       0.034700
     95 H37        121.3660   115.9010   128.6890 hc         1 L9H       0.037700
     96 H38        120.2330   116.4280   127.4640 hc         1 L9H       0.037700
     97 H39        118.4700   114.9610   128.4860 hc         1 L9H       0.036200
     98 H40        119.6290   114.4050   129.6720 hc         1 L9H       0.036200
     99 H41        121.0970   113.5530   127.8160 hc         1 L9H       0.037700
    100 H42        119.8850   114.0350   126.6510 hc         1 L9H       0.037700
    101 H43        119.8210   111.6030   127.2110 hc         1 L9H       0.035700
    102 H44        119.4750   111.9850   128.8820 hc         1 L9H       0.035700
    103 H45        117.6900   112.7310   126.5210 hc         1 L9H       0.038200
    104 H46        117.3130   113.0350   128.2000 hc         1 L9H       0.038200
    105 H47        116.1430   110.9860   127.4170 hc         1 L9H       0.029700
    106 H48        117.6810   110.2550   126.9680 hc         1 L9H       0.029700
    107 H49        117.3160   110.5660   128.6620 hc         1 L9H       0.029700
    108 H50        124.6250   131.4230   123.1560 h1         1 L9H       0.063700
    109 H51        123.8440   130.1760   122.1830 h1         1 L9H       0.063700
    110 H52        123.6340   130.8470   125.8320 h1         1 L9H       0.034200
    111 H53        123.4380   132.3270   124.9000 h1         1 L9H       0.034200
    112 H54        121.7220   132.1000   126.6160 hc         1 L9H       0.037200
    113 H55        121.0190   132.1890   125.0220 hc         1 L9H       0.037200
    114 H56        119.8630   130.5100   126.4130 hc         1 L9H       0.033200
    115 H57        120.5230   129.8520   124.9430 hc         1 L9H       0.033200
    116 H58        121.0310   128.1910   126.4300 hc         1 L9H       0.042200
    117 H59        122.5420   129.0440   126.3960 hc         1 L9H       0.042200
    118 H60        120.3940   129.1650   128.5580 hc         1 L9H       0.028700
    119 H61        121.9440   128.3620   128.6430 hc         1 L9H       0.028700
    120 H62        123.0180   130.7010   128.3730 hc         1 L9H       0.043700
    121 H63        121.4140   131.3590   128.5650 hc         1 L9H       0.043700
    122 H64        122.3480   131.4800   130.7260 hc         1 L9H       0.026200
    123 H65        121.1730   130.1930   130.7520 hc         1 L9H       0.026200
    124 H66        122.9090   129.3040   131.9810 hc         1 L9H       0.031700
    125 H67        123.2010   128.5630   130.4380 hc         1 L9H       0.031700
    126 H68        124.6020   131.0690   131.4890 hc         1 L9H       0.026200
    127 H69        125.2170   129.4520   131.6830 hc         1 L9H       0.026200
    128 H70        124.9290   130.9910   129.0670 hc         1 L9H       0.042700
    129 H71        126.3960   130.5640   129.9010 hc         1 L9H       0.042700
    130 H72        124.4830   128.6040   128.5420 hc         1 L9H       0.060700
    131 H73        126.0370   129.1320   127.9510 hc         1 L9H       0.060700
    132 H74        127.1450   128.0990   129.9580 hc         1 L9H       0.025700
    133 H75        125.5870   127.5480   130.5250 hc         1 L9H       0.025700
    134 H76        125.2910   126.1880   128.4630 hc         1 L9H       0.051200
    135 H77        126.8260   126.7460   127.8580 hc         1 L9H       0.051200
    136 H78        127.0460   124.5070   128.8050 hc         1 L9H       0.033200
    137 H79        128.0520   125.6550   129.6570 hc         1 L9H       0.033200
    138 H80        126.9910   124.0650   131.1810 hc         1 L9H       0.030700
    139 H81        126.5160   125.6980   131.5670 hc         1 L9H       0.030700
    140 H82        124.8050   123.7910   129.9060 hc         1 L9H       0.040700
    141 H83        124.3480   125.3970   130.4240 hc         1 L9H       0.040700
    142 H84        124.5160   124.6440   132.8240 hc         1 L9H       0.033200
    143 H85        123.2570   123.8770   131.8860 hc         1 L9H       0.033200
    144 H86        124.4080   122.1870   133.2700 hc         1 L9H       0.027033
    145 H87        124.6980   121.8510   131.5660 hc         1 L9H       0.027033
    146 H88        125.9600   122.5870   132.5490 hc         1 L9H       0.027033
@<TRIPOS>BOND
     1     1     2 1   
     2     1     3 1   
     3     1     7 1   
     4     1    59 1   
     5     2    60 1   
     6     3     4 1   
     7     3     5 1   
     8     3    61 1   
     9     4    62 1   
    10     5     6 1   
    11     5    11 1   
    12     5    63 1   
    13     6    64 1   
    14     7     8 1   
    15     7     9 1   
    16     7    65 1   
    17     8    66 1   
    18     9    10 1   
    19     9    11 1   
    20     9    67 1   
    21    10    68 1   
    22    11    12 1   
    23    11    69 1   
    24    12    13 1   
    25    13    14 1   
    26    13    57 1   
    27    13    58 1   
    28    14    15 1   
    29    15    16 1   
    30    15    70 1   
    31    15    71 1   
    32    16    17 1   
    33    16    37 1   
    34    16    72 1   
    35    17    18 1   
    36    18    19 1   
    37    18    36 2   
    38    19    20 1   
    39    19    73 1   
    40    19    74 1   
    41    20    21 1   
    42    20    75 1   
    43    20    76 1   
    44    21    22 1   
    45    21    77 1   
    46    21    78 1   
    47    22    23 1   
    48    22    79 1   
    49    22    80 1   
    50    23    24 1   
    51    23    81 1   
    52    23    82 1   
    53    24    25 1   
    54    24    83 1   
    55    24    84 1   
    56    25    26 1   
    57    25    85 1   
    58    25    86 1   
    59    26    27 1   
    60    26    87 1   
    61    26    88 1   
    62    27    28 1   
    63    27    89 1   
    64    27    90 1   
    65    28    29 1   
    66    28    91 1   
    67    28    92 1   
    68    29    30 1   
    69    29    93 1   
    70    29    94 1   
    71    30    31 1   
    72    30    95 1   
    73    30    96 1   
    74    31    32 1   
    75    31    97 1   
    76    31    98 1   
    77    32    33 1   
    78    32    99 1   
    79    32   100 1   
    80    33    34 1   
    81    33   101 1   
    82    33   102 1   
    83    34    35 1   
    84    34   103 1   
    85    34   104 1   
    86    35   105 1   
    87    35   106 1   
    88    35   107 1   
    89    37    38 1   
    90    37   108 1   
    91    37   109 1   
    92    38    39 1   
    93    39    40 1   
    94    39   110 1   
    95    39   111 1   
    96    40    41 1   
    97    40   112 1   
    98    40   113 1   
    99    41    42 1   
   100    41   114 1   
   101    41   115 1   
   102    42    43 1   
   103    42   116 1   
   104    42   117 1   
   105    43    44 1   
   106    43   118 1   
   107    43   119 1   
   108    44    45 1   
   109    44   120 1   
   110    44   121 1   
   111    45    46 1   
   112    45   122 1   
   113    45   123 1   
   114    46    47 1   
   115    46   124 1   
   116    46   125 1   
   117    47    48 1   
   118    47   126 1   
   119    47   127 1   
   120    48    49 1   
   121    48   128 1   
   122    48   129 1   
   123    49    50 1   
   124    49   130 1   
   125    49   131 1   
   126    50    51 1   
   127    50   132 1   
   128    50   133 1   
   129    51    52 1   
   130    51   134 1   
   131    51   135 1   
   132    52    53 1   
   133    52   136 1   
   134    52   137 1   
   135    53    54 1   
   136    53   138 1   
   137    53   139 1   
   138    54    55 1   
   139    54   140 1   
   140    54   141 1   
   141    55    56 1   
   142    55   142 1   
   143    55   143 1   
   144    56   144 1   
   145    56   145 1   
   146    56   146 1   
@<TRIPOS>SUBSTRUCTURE
     1 L9H         1 TEMP              0 ****  ****    0 ROOT
