@<TRIPOS>MOLECULE
L9I
   20    19     1     0     0
SMALL
No Charge or Current Charge


@<TRIPOS>ATOM
      1 N1         -16.6300    21.7920     1.3050 n2         1 L9I      -0.229700
      2 C2         -14.3370    21.5080     0.5770 c          1 L9I       0.513800
      3 O2         -14.1700    22.7110     0.3840 o          1 L9I      -0.478100
      4 C4         -15.8810    19.4840     1.4230 c          1 L9I       0.507800
      5 C5         -17.4970    17.8890     2.2700 c3         1 L9I       0.166600
      6 C6         -18.9450    17.9080     2.7840 c3         1 L9I      -0.098100
      7 C1         -13.1570    20.5710     0.2790 c3         1 L9I      -0.199100
      8 C3         -15.6510    20.9480     1.0940 ce         1 L9I       0.253300
      9 O1         -17.1470    19.2400     1.9170 os         1 L9I      -0.428100
     10 O3         -17.3300    22.1670     0.1430 oh         1 L9I      -0.492000
     11 O4         -15.0550    18.5890     1.2830 o          1 L9I      -0.471000
     12 H1         -17.4260    17.2250     1.3980 h1         1 L9I       0.051700
     13 H2         -16.8340    17.5040     3.0560 h1         1 L9I       0.051700
     14 H3         -19.2600    16.8970     3.0660 hc         1 L9I       0.049700
     15 H4         -19.0340    18.5560     3.6640 hc         1 L9I       0.049700
     16 H5         -19.6250    18.2770     2.0070 hc         1 L9I       0.049700
     17 H6         -12.2860    21.1080    -0.1150 hc         1 L9I       0.072367
     18 H7         -12.8960    20.0180     1.1880 hc         1 L9I       0.072367
     19 H8         -13.4820    19.7830    -0.4090 hc         1 L9I       0.072367
     20 H9         -18.0270    22.7920     0.4590 ho         1 L9I       0.485000
@<TRIPOS>BOND
     1     1     8 2   
     2     1    10 1   
     3     2     3 2   
     4     2     7 1   
     5     2     8 1   
     6     4     8 1   
     7     4     9 1   
     8     4    11 2   
     9     5     6 1   
    10     5     9 1   
    11     5    12 1   
    12     5    13 1   
    13     6    14 1   
    14     6    15 1   
    15     6    16 1   
    16     7    17 1   
    17     7    18 1   
    18     7    19 1   
    19    10    20 1   
@<TRIPOS>SUBSTRUCTURE
     1 L9I         1 TEMP              0 ****  ****    0 ROOT
