@<TRIPOS>MOLECULE
L9I
   20    19     1     0     0
SMALL
bcc


@<TRIPOS>ATOM
      1 N1         -16.6210    21.9670     0.2080 n2         1 L9I      -0.328200
      2 C2         -14.3750    21.4960     0.7650 c          1 L9I       0.513800
      3 O2         -14.0630    22.6500     0.6000 o          1 L9I      -0.478100
      4 C4         -16.1830    19.6110     0.6510 c          1 L9I       0.556800
      5 C5         -17.4120    18.0390     1.9160 c3         1 L9I       0.143400
      6 C6         -18.2700    18.0480     3.1560 c3         1 L9I      -0.098100
      7 C1         -13.4120    20.4360     1.2020 c3         1 L9I      -0.199100
      8 C3         -15.7960    21.0590     0.5440 ce         1 L9I       0.253300
      9 O1         -16.9150    19.3790     1.7150 os         1 L9I      -0.404900
     10 O3         -17.8670    21.5230     0.0120 oh         1 L9I      -0.354500
     11 O4         -15.8360    18.7940    -0.1610 o          1 L9I      -0.520000
     12 H1         -17.9870    17.7340     1.0400 h1         1 L9I       0.051700
     13 H2         -16.5680    17.3550     2.0240 h1         1 L9I       0.051700
     14 H3         -18.6560    17.0430     3.3250 hc         1 L9I       0.049700
     15 H4         -17.7000    18.3390     4.0380 hc         1 L9I       0.049700
     16 H5         -19.1220    18.7190     3.0510 hc         1 L9I       0.049700
     17 H6         -12.4420    20.8720     1.4300 hc         1 L9I       0.072367
     18 H7         -13.7830    19.9110     2.0850 hc         1 L9I       0.072367
     19 H8         -13.2850    19.6890     0.4160 hc         1 L9I       0.072367
     20 H9         -18.3760    22.3030    -0.2430 ho         1 L9I       0.446000
@<TRIPOS>BOND
     1     1     8 2   
     2     1    10 1   
     3     2     3 2   
     4     2     7 1   
     5     2     8 1   
     6     4     8 1   
     7     4     9 1   
     8     4    11 2   
     9     5     6 1   
    10     5     9 1   
    11     5    12 1   
    12     5    13 1   
    13     6    14 1   
    14     6    15 1   
    15     6    16 1   
    16     7    17 1   
    17     7    18 1   
    18     7    19 1   
    19    10    20 1   
@<TRIPOS>SUBSTRUCTURE
     1 L9I         1 TEMP              0 ****  ****    0 ROOT
