@<TRIPOS>MOLECULE
L9L
   49    52     1     0     0
SMALL
No Charge or Current Charge


@<TRIPOS>ATOM
      1 C1          -6.1100    -1.6640     0.4410 ca         1 L9L      -0.067000
      2 F1           9.3090     1.4740     1.2530 f          1 L9L      -0.115333
      3 N1          -0.0650    -0.3100    -0.2380 nu         1 L9L      -0.929100
      4 O1         -10.6200     2.0750    -0.4080 o          1 L9L      -0.524000
      5 S1          -2.6740     0.5340    -0.3510 ss         1 L9L      -0.129400
      6 C2          -7.5110    -1.5050     0.4630 ca         1 L9L      -0.140000
      7 F2           9.0060     2.0990    -0.8010 f          1 L9L      -0.115333
      8 N2          -1.7150    -1.8350     0.2770 nc         1 L9L      -0.733000
      9 C3          -8.0270    -0.2520     0.1310 ca         1 L9L      -0.029000
     10 F3           9.8950     0.1600    -0.3770 f          1 L9L      -0.115333
     11 N3           2.4120     0.3820     1.1330 n8         1 L9L      -1.012200
     12 C4          -7.2240     0.8100    -0.2110 ca         1 L9L      -0.139300
     13 N4          -9.3450     0.1850     0.0700 ns         1 L9L      -0.147000
     14 C5          -5.8290     0.6740    -0.2390 ca         1 L9L      -0.055000
     15 C6          -5.2530    -0.5820     0.0910 ca         1 L9L      -0.021000
     16 C7           2.4400    -0.5270    -0.0450 c3         1 L9L       0.154500
     17 C8          -9.5440     1.5010    -0.2960 c          1 L9L       0.565000
     18 C9          -3.7850    -0.7640     0.0720 cd         1 L9L      -0.184000
     19 C10         -3.0830    -1.9160     0.3670 cc         1 L9L       0.328900
     20 C11         -1.3790    -0.6190    -0.0850 cd         1 L9L       0.722300
     21 C12          1.0720    -1.2620    -0.2150 c3         1 L9L       0.188800
     22 C13          5.8130    -0.8970     1.1830 ca         1 L9L      -0.106000
     23 C14          7.0810    -0.2900     1.1830 ca         1 L9L      -0.060500
     24 C15          7.5560     0.3780     0.0330 ca         1 L9L      -0.198300
     25 C16          6.7430     0.4100    -1.1200 ca         1 L9L      -0.060500
     26 C17          5.4760    -0.1990    -1.1160 ca         1 L9L      -0.106000
     27 C18          4.9990    -0.8520     0.0360 ca         1 L9L      -0.036300
     28 C20          3.6270    -1.5240     0.0280 c3         1 L9L      -0.026100
     29 C21         -8.0900     2.0290    -0.5170 c5         1 L9L      -0.118100
     30 H1          -5.6970    -2.6350     0.6980 ha         1 L9L       0.117000
     31 HN1          0.0840     0.6040    -0.6590 hn         1 L9L       0.495000
     32 H2          -8.1660    -2.3310     0.7300 ha         1 L9L       0.124000
     33 HN3          1.4330     0.6640     1.2650 hn         1 L9L       0.403000
     34 HN3A         2.6060    -0.1670     1.9770 hn         1 L9L       0.403000
     35 HN4        -10.1190    -0.4310     0.2820 hn         1 L9L       0.173000
     36 H5          -5.2150     1.5280    -0.5120 ha         1 L9L       0.121000
     37 H7           2.5730     0.0970    -0.9410 h1         1 L9L       0.068700
     38 H10         -3.5050    -2.8680     0.6590 h4         1 L9L       0.039100
     39 H12          0.9520    -1.9740     0.6140 h1         1 L9L       0.060200
     40 H12A         1.0910    -1.8440    -1.1460 h1         1 L9L       0.060200
     41 H13          5.4660    -1.4050     2.0800 ha         1 L9L       0.118500
     42 H14          7.6930    -0.3440     2.0820 ha         1 L9L       0.128000
     43 H16          7.0890     0.9020    -2.0260 ha         1 L9L       0.128000
     44 H17          4.8650    -0.1660    -2.0150 ha         1 L9L       0.118500
     45 H20          3.5070    -2.1630     0.9120 hc         1 L9L       0.054700
     46 H20A         3.5700    -2.1990    -0.8350 hc         1 L9L       0.054700
     47 H21         -7.9170     2.8810     0.1480 hc         1 L9L       0.091200
     48 H21A        -7.9980     2.3990    -1.5430 hc         1 L9L       0.091200
     49 C19          8.9430     1.0310     0.0280 c3         1 L9L       0.356300
@<TRIPOS>BOND
     1     1     6 ar  
     2     1    15 ar  
     3     1    30 1   
     4     2    49 1   
     5     3    20 1   
     6     3    21 1   
     7     3    31 1   
     8     4    17 2   
     9     5    18 1   
    10     5    20 1   
    11     6     9 ar  
    12     6    32 1   
    13     7    49 1   
    14     8    19 1   
    15     8    20 2   
    16     9    12 ar  
    17     9    13 1   
    18    10    49 1   
    19    11    16 1   
    20    11    33 1   
    21    11    34 1   
    22    12    14 ar  
    23    12    29 1   
    24    13    17 1   
    25    13    35 1   
    26    14    15 ar  
    27    14    36 1   
    28    15    18 1   
    29    16    21 1   
    30    16    28 1   
    31    16    37 1   
    32    17    29 1   
    33    18    19 2   
    34    19    38 1   
    35    21    39 1   
    36    21    40 1   
    37    22    23 ar  
    38    22    27 ar  
    39    22    41 1   
    40    23    24 ar  
    41    23    42 1   
    42    24    25 ar  
    43    24    49 1   
    44    25    26 ar  
    45    25    43 1   
    46    26    27 ar  
    47    26    44 1   
    48    27    28 1   
    49    28    45 1   
    50    28    46 1   
    51    29    47 1   
    52    29    48 1   
@<TRIPOS>SUBSTRUCTURE
     1 L9L         1 TEMP              0 ****  ****    0 ROOT
