@<TRIPOS>MOLECULE
L9L
   49    52     1     0     0
SMALL
abcg2


@<TRIPOS>ATOM
      1 C1          -6.0240    -1.6630     0.3890 ca         1 L9L      -0.067000
      2 F1           8.9850     1.7520     1.0520 f          1 L9L      -0.115333
      3 N1          -0.0190    -0.2330    -0.1620 nu         1 L9L      -0.929100
      4 O1         -10.4370     2.0730    -0.2070 o          1 L9L      -0.524000
      5 S1          -2.6040     0.5040     0.0350 ss         1 L9L      -0.129400
      6 C2          -7.4030    -1.5120     0.4650 ca         1 L9L      -0.140000
      7 F2           8.9840     1.7250    -1.1010 f          1 L9L      -0.115333
      8 N2          -1.6780    -1.8790    -0.2660 nc         1 L9L      -0.733000
      9 C3          -7.9330    -0.2680     0.1800 ca         1 L9L      -0.029000
     10 F3           9.7360     0.0370    -0.0030 f          1 L9L      -0.115333
     11 N3           2.5020     0.3030     1.2970 n8         1 L9L      -1.012200
     12 C4          -7.1180     0.8050    -0.1770 ca         1 L9L      -0.139300
     13 N4          -9.2570     0.1480     0.1940 ns         1 L9L      -0.147000
     14 C5          -5.7540     0.6420    -0.2640 ca         1 L9L      -0.055000
     15 C6          -5.1820    -0.6090     0.0190 ca         1 L9L      -0.021000
     16 C7           2.4130    -0.4640     0.0700 c3         1 L9L       0.154500
     17 C8          -9.3910     1.4630    -0.1390 c          1 L9L       0.565000
     18 C9          -3.7430    -0.8190    -0.0700 cd         1 L9L      -0.184000
     19 C10         -3.0390    -1.9700    -0.2280 cc         1 L9L       0.328900
     20 C11         -1.2970    -0.6410    -0.1440 cd         1 L9L       0.722300
     21 C12          1.0760    -1.1780    -0.1460 c3         1 L9L       0.188800
     22 C13          5.5790    -0.6170     1.2130 ca         1 L9L      -0.106000
     23 C14          6.8220    -0.0080     1.2030 ca         1 L9L      -0.060500
     24 C15          7.4070     0.3600    -0.0050 ca         1 L9L      -0.198300
     25 C16          6.7420     0.0990    -1.1970 ca         1 L9L      -0.060500
     26 C17          5.4990    -0.5140    -1.1730 ca         1 L9L      -0.106000
     27 C18          4.8970    -0.8810     0.0280 ca         1 L9L      -0.036300
     28 C20          3.5360    -1.5090     0.0340 c3         1 L9L      -0.026100
     29 C21         -7.9910     1.9970    -0.4060 c5         1 L9L      -0.118100
     30 H1          -5.5970    -2.6250     0.6420 ha         1 L9L       0.117000
     31 HN1          0.1750     0.7300     0.0560 hn         1 L9L       0.495000
     32 H2          -8.0300    -2.3450     0.7540 ha         1 L9L       0.124000
     33 HN3          1.9330     1.1390     1.2670 hn         1 L9L       0.403000
     34 HN3A         2.1790    -0.2450     2.0860 hn         1 L9L       0.403000
     35 HN4        -10.0400    -0.4480     0.4170 hn         1 L9L       0.173000
     36 H5          -5.1330     1.4800    -0.5600 ha         1 L9L       0.121000
     37 H7           2.5670     0.2310    -0.7630 h1         1 L9L       0.068700
     38 H10         -3.4970    -2.9450    -0.3360 h4         1 L9L       0.039100
     39 H12          0.9260    -1.9160     0.6510 h1         1 L9L       0.060200
     40 H12A         1.0990    -1.7300    -1.0900 h1         1 L9L       0.060200
     41 H13          5.1350    -0.8930     2.1600 ha         1 L9L       0.118500
     42 H14          7.3230     0.1800     2.1440 ha         1 L9L       0.128000
     43 H16          7.1780     0.3660    -2.1500 ha         1 L9L       0.128000
     44 H17          4.9920    -0.7120    -2.1100 ha         1 L9L       0.118500
     45 H20          3.4300    -2.1700     0.9000 hc         1 L9L       0.054700
     46 H20A         3.4160    -2.1340    -0.8540 hc         1 L9L       0.054700
     47 H21         -7.7740     2.8250     0.2730 hc         1 L9L       0.091200
     48 H21A        -7.9300     2.3930    -1.4220 hc         1 L9L       0.091200
     49 C19          8.7700     0.9710    -0.0160 c3         1 L9L       0.356300
@<TRIPOS>BOND
     1     1     6 ar  
     2     1    15 ar  
     3     1    30 1   
     4     2    49 1   
     5     3    20 1   
     6     3    21 1   
     7     3    31 1   
     8     4    17 2   
     9     5    18 1   
    10     5    20 1   
    11     6     9 ar  
    12     6    32 1   
    13     7    49 1   
    14     8    19 1   
    15     8    20 2   
    16     9    12 ar  
    17     9    13 1   
    18    10    49 1   
    19    11    16 1   
    20    11    33 1   
    21    11    34 1   
    22    12    14 ar  
    23    12    29 1   
    24    13    17 1   
    25    13    35 1   
    26    14    15 ar  
    27    14    36 1   
    28    15    18 1   
    29    16    21 1   
    30    16    28 1   
    31    16    37 1   
    32    17    29 1   
    33    18    19 2   
    34    19    38 1   
    35    21    39 1   
    36    21    40 1   
    37    22    23 ar  
    38    22    27 ar  
    39    22    41 1   
    40    23    24 ar  
    41    23    42 1   
    42    24    25 ar  
    43    24    49 1   
    44    25    26 ar  
    45    25    43 1   
    46    26    27 ar  
    47    26    44 1   
    48    27    28 1   
    49    28    45 1   
    50    28    46 1   
    51    29    47 1   
    52    29    48 1   
@<TRIPOS>SUBSTRUCTURE
     1 L9L         1 TEMP              0 ****  ****    0 ROOT
