@<TRIPOS>MOLECULE
L9O
   35    37     1     0     0
SMALL
abcg2


@<TRIPOS>ATOM
      1 N1           8.7420     0.2480    21.3900 ns         1 L9O      -0.148000
      2 C4           8.6530     1.2990    19.1720 ca         1 L9O       0.323900
      3 C5           8.0420     0.6270    20.2340 ca         1 L9O      -0.075000
      4 C6           9.8850     0.7820    21.9060 c          1 L9O       0.621100
      5 C7          10.4110     0.1290    23.1550 cy         1 L9O      -0.162700
      6 C8           9.6730    -0.9720    23.9520 cy         1 L9O      -0.085400
      7 C10         11.6190    -0.8560    23.0120 cy         1 L9O      -0.073000
      8 C13         11.7840    -1.5780    21.6490 cy         1 L9O      -0.076900
      9 O           10.4840     1.7220    21.3880 o          1 L9O      -0.584100
     10 C12         13.0370    -0.7090    21.3730 cy         1 L9O      -0.089400
     11 C11         13.0570    -0.3240    22.8740 cy         1 L9O      -0.076900
     12 C9          11.0510    -1.6240    24.2190 cy         1 L9O      -0.074400
     13 C1           6.6820     0.2880    20.1310 ca         1 L9O      -0.091300
     14 C            5.9680    -0.4440    21.2280 c3         1 L9O      -0.051800
     15 N            8.0030     1.6540    18.0610 nb         1 L9O      -0.645000
     16 C3           6.7090     1.3410    17.9670 ca         1 L9O       0.310900
     17 C2           6.0250     0.6630    18.9650 ca         1 L9O      -0.141000
     18 H1           8.3150    -0.4790    21.9420 hn         1 L9O       0.153000
     19 H3          10.7100     0.9360    23.8260 hc         1 L9O       0.089700
     20 H4           9.0790    -0.6490    24.8050 hc         1 L9O       0.050700
     21 H5           9.0620    -1.6190    23.3200 hc         1 L9O       0.050700
     22 H6          10.9610    -1.5180    20.9370 hc         1 L9O       0.053950
     23 H7          12.0390    -2.6290    21.7970 hc         1 L9O       0.053950
     24 H8          13.9150    -1.2210    20.9810 hc         1 L9O       0.057700
     25 H9          12.8090     0.1450    20.7360 hc         1 L9O       0.057700
     26 H10         13.7610    -0.9310    23.4480 hc         1 L9O       0.053950
     27 H11         13.2120     0.7270    23.1240 hc         1 L9O       0.053950
     28 H12         11.1130    -2.7110    24.1810 hc         1 L9O       0.057200
     29 H13         11.4890    -1.2690    25.1540 hc         1 L9O       0.057200
     30 H14          6.3890    -1.4430    21.3780 hc         1 L9O       0.045700
     31 H15          6.0530     0.0880    22.1790 hc         1 L9O       0.045700
     32 H16          4.9120    -0.5570    20.9890 hc         1 L9O       0.045700
     33 H17          6.1990     1.6400    17.0570 h4         1 L9O       0.021100
     34 H18          4.9760     0.4290    18.8390 ha         1 L9O       0.120000
     35 H2           9.7000     1.5550    19.2320 h4         1 L9O       0.049100
@<TRIPOS>BOND
     1     1     3 1   
     2     1     4 1   
     3     1    18 1   
     4     2     3 ar  
     5     2    15 ar  
     6     2    35 1   
     7     3    13 ar  
     8     4     5 1   
     9     4     9 2   
    10     5     6 1   
    11     5     7 1   
    12     5    19 1   
    13     6    12 1   
    14     6    20 1   
    15     6    21 1   
    16     7     8 1   
    17     7    11 1   
    18     7    12 1   
    19     8    10 1   
    20     8    22 1   
    21     8    23 1   
    22    10    11 1   
    23    10    24 1   
    24    10    25 1   
    25    11    26 1   
    26    11    27 1   
    27    12    28 1   
    28    12    29 1   
    29    13    14 1   
    30    13    17 ar  
    31    14    30 1   
    32    14    31 1   
    33    14    32 1   
    34    15    16 ar  
    35    16    17 ar  
    36    16    33 1   
    37    17    34 1   
@<TRIPOS>SUBSTRUCTURE
     1 L9O         1 TEMP              0 ****  ****    0 ROOT
