@<TRIPOS>MOLECULE
L9O
   35    37     1     0     0
SMALL
No Charge or Current Charge


@<TRIPOS>ATOM
      1 N1           8.6790     0.2910    21.3110 ns         1 L9O      -0.148000
      2 C4           8.3950     0.7470    18.8680 ca         1 L9O       0.323900
      3 C5           7.8640     0.5570    20.1700 ca         1 L9O      -0.075000
      4 C6          10.0500     0.4140    21.5340 c          1 L9O       0.621100
      5 C7          10.4000    -0.0400    23.0240 cy         1 L9O      -0.162700
      6 C8           9.7770    -1.5370    23.0280 cy         1 L9O      -0.085400
      7 C10         11.7200    -0.8770    22.9040 cy         1 L9O      -0.073000
      8 C13         12.4300    -1.2860    21.5960 cy         1 L9O      -0.076900
      9 O           10.7340     0.9760    20.6860 o          1 L9O      -0.584100
     10 C12         13.4810    -0.1930    22.1180 cy         1 L9O      -0.089400
     11 C11         12.9310    -0.2930    23.6230 cy         1 L9O      -0.076900
     12 C9          11.1450    -2.0970    23.6440 cy         1 L9O      -0.074400
     13 C1           6.4600     0.6040    20.3320 ca         1 L9O      -0.091300
     14 C            5.8010     0.3960    21.6920 c3         1 L9O      -0.051800
     15 N            7.6270     0.9860    17.7770 nb         1 L9O      -0.645000
     16 C3           6.2890     1.0430    17.9480 ca         1 L9O       0.310900
     17 C2           5.6710     0.8560    19.1950 ca         1 L9O      -0.141000
     18 H1           8.1660    -0.0780    22.1010 hn         1 L9O       0.153000
     19 H3          10.2180     0.6400    23.8620 hc         1 L9O       0.089700
     20 H4           8.8950    -1.6740    23.6640 hc         1 L9O       0.050700
     21 H5           9.5540    -1.9950    22.0550 hc         1 L9O       0.050700
     22 H6          11.9590    -1.1150    20.6250 hc         1 L9O       0.053950
     23 H7          12.8390    -2.3030    21.5930 hc         1 L9O       0.053950
     24 H8          14.5350    -0.4640    21.9890 hc         1 L9O       0.057700
     25 H9          13.3420     0.7980    21.6690 hc         1 L9O       0.057700
     26 H10         13.4830    -0.9910    24.2620 hc         1 L9O       0.053950
     27 H11         12.7880     0.6590    24.1470 hc         1 L9O       0.053950
     28 H12         11.4570    -3.0930    23.3120 hc         1 L9O       0.057200
     29 H13         11.1980    -2.0460    24.7380 hc         1 L9O       0.057200
     30 H14          6.0170    -0.6040    22.0870 hc         1 L9O       0.045700
     31 H15          6.1590     1.1320    22.4220 hc         1 L9O       0.045700
     32 H16          4.7100     0.4960    21.6340 hc         1 L9O       0.045700
     33 H17          5.6930     1.2380    17.0570 h4         1 L9O       0.021100
     34 H18          4.5880     0.9080    19.2660 ha         1 L9O       0.120000
     35 H2           9.4630     0.6850    18.6700 h4         1 L9O       0.049100
@<TRIPOS>BOND
     1     1     3 1   
     2     1     4 1   
     3     1    18 1   
     4     2     3 ar  
     5     2    15 ar  
     6     2    35 1   
     7     3    13 ar  
     8     4     5 1   
     9     4     9 2   
    10     5     6 1   
    11     5     7 1   
    12     5    19 1   
    13     6    12 1   
    14     6    20 1   
    15     6    21 1   
    16     7     8 1   
    17     7    11 1   
    18     7    12 1   
    19     8    10 1   
    20     8    22 1   
    21     8    23 1   
    22    10    11 1   
    23    10    24 1   
    24    10    25 1   
    25    11    26 1   
    26    11    27 1   
    27    12    28 1   
    28    12    29 1   
    29    13    14 1   
    30    13    17 ar  
    31    14    30 1   
    32    14    31 1   
    33    14    32 1   
    34    15    16 ar  
    35    16    17 ar  
    36    16    33 1   
    37    17    34 1   
@<TRIPOS>SUBSTRUCTURE
     1 L9O         1 TEMP              0 ****  ****    0 ROOT
