@<TRIPOS>MOLECULE
L9Q
  130   129     1     0     0
SMALL
No Charge or Current Charge


@<TRIPOS>ATOM
      1 N           -0.6020   -10.4000     3.6640 n8         1 L9Q      -0.979200
      2 P           -1.6470    -7.1200     2.6920 p5         1 L9Q       1.397800
      3 C1          -2.2250    -7.7250     0.1740 c3         1 L9Q       0.220600
      4 C2          -1.5590    -7.3590    -1.1930 c3         1 L9Q       0.158300
      5 O2          -2.0790    -6.1020    -1.6980 os         1 L9Q      -0.417100
      6 C3          -0.0080    -7.2980    -1.1810 c3         1 L9Q       0.176600
      7 O3           0.4520    -6.2080    -0.3570 os         1 L9Q      -0.398100
      8 C4           0.5670    -8.6130     2.2210 c3         1 L9Q       0.244600
      9 C5           0.6280    -9.6020     3.4330 c3         1 L9Q       0.123800
     10 C11          1.7920    -6.1240    -0.1010 c          1 L9Q       0.620100
     11 O11          2.6280    -6.9160    -0.5180 o          1 L9Q      -0.542000
     12 C12          2.1370    -4.9230     0.7770 c3         1 L9Q      -0.152400
     13 C13          2.6360    -3.7310    -0.0760 c3         1 L9Q      -0.054400
     14 C14          3.2320    -2.5800     0.7650 c3         1 L9Q      -0.081400
     15 C15          3.7810    -1.4260    -0.1050 c3         1 L9Q      -0.072400
     16 C16          4.5370    -0.3490     0.7050 c3         1 L9Q      -0.076400
     17 C17          5.1440     0.7570    -0.1890 c3         1 L9Q      -0.073400
     18 C18          6.0420     1.7500     0.5830 c3         1 L9Q      -0.075400
     19 C19          6.7040     2.8010    -0.3380 c3         1 L9Q      -0.074400
     20 O1P         -1.9200    -5.9620     3.5930 o          1 L9Q      -0.819500
     21 C20          7.7150     3.7140     0.3930 c3         1 L9Q      -0.074400
     22 C21          8.4200     4.7090    -0.5570 c3         1 L9Q      -0.074400
     23 C22          9.5090     5.5600     0.1370 c3         1 L9Q      -0.074400
     24 C23         10.2400     6.5110    -0.8380 c3         1 L9Q      -0.074400
     25 C24         11.3760     7.3210    -0.1720 c3         1 L9Q      -0.074400
     26 C25         12.1200     8.2450    -1.1640 c3         1 L9Q      -0.074400
     27 C26         13.2810     9.0320    -0.5140 c3         1 L9Q      -0.075400
     28 C27         14.0290     9.9420    -1.5140 c3         1 L9Q      -0.075400
     29 C28         15.1970    10.7180    -0.8710 c3         1 L9Q      -0.088100
     30 O2P         -2.4120    -8.3260     3.1180 o          1 L9Q      -0.819500
     31 C31         -3.3660    -6.0600    -2.1710 c          1 L9Q       0.601100
     32 O31         -4.0820    -7.0410    -2.3200 o          1 L9Q      -0.514000
     33 C32         -3.7710    -4.6510    -2.6100 c3         1 L9Q      -0.141400
     34 C33         -4.7210    -3.9990    -1.5760 c3         1 L9Q      -0.066400
     35 C34         -5.2820    -2.6330    -2.0340 c3         1 L9Q      -0.076400
     36 C35         -6.3020    -2.0410    -1.0350 c3         1 L9Q      -0.074400
     37 C36         -6.9460    -0.7240    -1.5210 c3         1 L9Q      -0.075400
     38 C37         -8.0430    -0.2050    -0.5630 c3         1 L9Q      -0.072400
     39 C38         -8.7490     1.0710    -1.0690 c3         1 L9Q      -0.045200
     40 C39         -9.9110     1.4670    -0.1740 c2         1 L9Q      -0.211200
     41 O3P         -1.9600    -6.7160     1.1630 os         1 L9Q      -0.564400
     42 C40         -9.9740     2.5060     0.6780 c2         1 L9Q      -0.220200
     43 C41         -8.8880     3.5230     0.9760 c3         1 L9Q      -0.042200
     44 C42         -9.1060     4.8380     0.2000 c3         1 L9Q      -0.072400
     45 C43         -8.0340     5.9100     0.4990 c3         1 L9Q      -0.075400
     46 C44         -8.2610     7.2230    -0.2840 c3         1 L9Q      -0.073400
     47 C45         -7.1880     8.2960     0.0060 c3         1 L9Q      -0.075400
     48 C46         -7.4120     9.6040    -0.7850 c3         1 L9Q      -0.075400
     49 C47         -6.3350    10.6750    -0.5020 c3         1 L9Q      -0.075400
     50 C48         -6.5540    11.9780    -1.2950 c3         1 L9Q      -0.088100
     51 O4P         -0.0540    -7.3680     2.5940 os         1 L9Q      -0.616400
     52 HN          -1.4000    -9.7390     3.6360 hn         1 L9Q       0.380500
     53 HNA         -0.7730   -10.9980     2.8480 hn         1 L9Q       0.380500
     54 H1          -3.3080    -7.8320     0.0360 h1         1 L9Q       0.031700
     55 H1A         -1.8520    -8.7060     0.4910 h1         1 L9Q       0.031700
     56 H2          -1.8140    -8.1650    -1.8950 h1         1 L9Q       0.045700
     57 H3           0.3720    -8.2560    -0.8040 h1         1 L9Q       0.044700
     58 H3A          0.3550    -7.1770    -2.2100 h1         1 L9Q       0.044700
     59 H4           1.5970    -8.4100     1.9000 h1         1 L9Q       0.017200
     60 H4A          0.0550    -9.0880     1.3770 h1         1 L9Q       0.017200
     61 H5           0.8520    -9.0350     4.3460 h1         1 L9Q       0.022200
     62 H5A          1.4530   -10.3090     3.2700 h1         1 L9Q       0.022200
     63 H12          1.2400    -4.6030     1.3210 hc         1 L9Q       0.105200
     64 H12A         2.9250    -5.2230     1.4760 hc         1 L9Q       0.105200
     65 H13          3.4050    -4.0910    -0.7710 hc         1 L9Q       0.035200
     66 H13A         1.8080    -3.3510    -0.6880 hc         1 L9Q       0.035200
     67 H14          2.4670    -2.1890     1.4480 hc         1 L9Q       0.048200
     68 H14A         4.0440    -2.9770     1.3870 hc         1 L9Q       0.048200
     69 H15          4.4620    -1.8430    -0.8580 hc         1 L9Q       0.031200
     70 H15A         2.9520    -0.9570    -0.6500 hc         1 L9Q       0.031200
     71 H16          3.8570     0.1050     1.4370 hc         1 L9Q       0.039200
     72 H16A         5.3430    -0.8320     1.2720 hc         1 L9Q       0.039200
     73 H17          5.7400     0.2850    -0.9810 hc         1 L9Q       0.033700
     74 H17A         4.3340     1.3070    -0.6840 hc         1 L9Q       0.033700
     75 H18          5.4480     2.2610     1.3520 hc         1 L9Q       0.037700
     76 H18A         6.8270     1.1880     1.1050 hc         1 L9Q       0.037700
     77 H19          7.2230     2.2810    -1.1540 hc         1 L9Q       0.035200
     78 H19A         5.9230     3.4190    -0.8000 hc         1 L9Q       0.035200
     79 H20          7.1980     4.2700     1.1850 hc         1 L9Q       0.037200
     80 H20A         8.4730     3.0880     0.8810 hc         1 L9Q       0.037200
     81 H21          8.8800     4.1500    -1.3820 hc         1 L9Q       0.035700
     82 H21A         7.6700     5.3750    -1.0030 hc         1 L9Q       0.035700
     83 H22          9.0520     6.1470     0.9440 hc         1 L9Q       0.037200
     84 H22A        10.2430     4.8900     0.6020 hc         1 L9Q       0.037200
     85 H23         10.6600     5.9220    -1.6640 hc         1 L9Q       0.036200
     86 H23A         9.5120     7.2050    -1.2780 hc         1 L9Q       0.036200
     87 H24         10.9600     7.9270     0.6430 hc         1 L9Q       0.036700
     88 H24A        12.0960     6.6260     0.2790 hc         1 L9Q       0.036700
     89 H25         12.5170     7.6390    -1.9890 hc         1 L9Q       0.036200
     90 H25A        11.4050     8.9530    -1.6020 hc         1 L9Q       0.036200
     91 H26         12.8860     9.6450     0.3070 hc         1 L9Q       0.036700
     92 H26A        13.9930     8.3230    -0.0710 hc         1 L9Q       0.036700
     93 H27         14.4200     9.3320    -2.3380 hc         1 L9Q       0.035700
     94 H27A        13.3230    10.6600    -1.9510 hc         1 L9Q       0.035700
     95 H28         14.8340    11.3680    -0.0650 hc         1 L9Q       0.030700
     96 H28A        15.9390    10.0260    -0.4540 hc         1 L9Q       0.030700
     97 H28B        15.6960    11.3460    -1.6190 hc         1 L9Q       0.030700
     98 H32         -2.8780    -4.0200    -2.6970 hc         1 L9Q       0.071700
     99 H32A        -4.2880    -4.7200    -3.5740 hc         1 L9Q       0.071700
    100 H33         -5.5610    -4.6800    -1.3880 hc         1 L9Q       0.051700
    101 H33A        -4.1910    -3.8760    -0.6230 hc         1 L9Q       0.051700
    102 H34         -4.4540    -1.9260    -2.1730 hc         1 L9Q       0.036700
    103 H34A        -5.7670    -2.7550    -3.0110 hc         1 L9Q       0.036700
    104 H35         -7.0940    -2.7800    -0.8590 hc         1 L9Q       0.039200
    105 H35A        -5.8070    -1.8690    -0.0710 hc         1 L9Q       0.039200
    106 H36         -6.1690     0.0420    -1.6360 hc         1 L9Q       0.036200
    107 H36A        -7.3870    -0.8860    -2.5130 hc         1 L9Q       0.036200
    108 H37         -8.7940    -0.9920    -0.4220 hc         1 L9Q       0.039700
    109 H37A        -7.6020    -0.0040     0.4220 hc         1 L9Q       0.039700
    110 H38         -8.0140     1.8790    -1.1550 hc         1 L9Q       0.043700
    111 H38A        -9.1230     0.8940    -2.0860 hc         1 L9Q       0.043700
    112 H39        -10.7790     0.8120    -0.2790 ha         1 L9Q       0.163000
    113 H40        -10.8890     2.6680     1.2520 ha         1 L9Q       0.161000
    114 H41         -8.8730     3.7360     2.0530 hc         1 L9Q       0.045700
    115 H41A        -7.8960     3.1220     0.7360 hc         1 L9Q       0.045700
    116 H42         -9.1100     4.6210    -0.8750 hc         1 L9Q       0.037200
    117 H42A       -10.0960     5.2410     0.4490 hc         1 L9Q       0.037200
    118 H43         -8.0300     6.1270     1.5740 hc         1 L9Q       0.038700
    119 H43A        -7.0430     5.5080     0.2490 hc         1 L9Q       0.038700
    120 H44         -8.2690     7.0040    -1.3590 hc         1 L9Q       0.035700
    121 H44A        -9.2500     7.6260    -0.0310 hc         1 L9Q       0.035700
    122 H45         -7.1830     8.5210     1.0800 hc         1 L9Q       0.038200
    123 H45A        -6.1980     7.8910    -0.2420 hc         1 L9Q       0.038200
    124 H46         -7.4210     9.3780    -1.8590 hc         1 L9Q       0.036200
    125 H46A        -8.4000    10.0120    -0.5350 hc         1 L9Q       0.036200
    126 H47         -6.3270    10.9080     0.5710 hc         1 L9Q       0.037200
    127 H47A        -5.3450    10.2700    -0.7500 hc         1 L9Q       0.037200
    128 H48         -6.5300    11.7840    -2.3750 hc         1 L9Q       0.030033
    129 H48A        -7.5230    12.4270    -1.0440 hc         1 L9Q       0.030033
    130 H48B        -5.7680    12.7060    -1.0600 hc         1 L9Q       0.030033
@<TRIPOS>BOND
     1     1     9 1   
     2     1    52 1   
     3     1    53 1   
     4     2    20 1   
     5     2    30 1   
     6     2    41 1   
     7     2    51 1   
     8     3     4 1   
     9     3    41 1   
    10     3    54 1   
    11     3    55 1   
    12     4     5 1   
    13     4     6 1   
    14     4    56 1   
    15     5    31 1   
    16     6     7 1   
    17     6    57 1   
    18     6    58 1   
    19     7    10 1   
    20     8     9 1   
    21     8    51 1   
    22     8    59 1   
    23     8    60 1   
    24     9    61 1   
    25     9    62 1   
    26    10    11 2   
    27    10    12 1   
    28    12    13 1   
    29    12    63 1   
    30    12    64 1   
    31    13    14 1   
    32    13    65 1   
    33    13    66 1   
    34    14    15 1   
    35    14    67 1   
    36    14    68 1   
    37    15    16 1   
    38    15    69 1   
    39    15    70 1   
    40    16    17 1   
    41    16    71 1   
    42    16    72 1   
    43    17    18 1   
    44    17    73 1   
    45    17    74 1   
    46    18    19 1   
    47    18    75 1   
    48    18    76 1   
    49    19    21 1   
    50    19    77 1   
    51    19    78 1   
    52    21    22 1   
    53    21    79 1   
    54    21    80 1   
    55    22    23 1   
    56    22    81 1   
    57    22    82 1   
    58    23    24 1   
    59    23    83 1   
    60    23    84 1   
    61    24    25 1   
    62    24    85 1   
    63    24    86 1   
    64    25    26 1   
    65    25    87 1   
    66    25    88 1   
    67    26    27 1   
    68    26    89 1   
    69    26    90 1   
    70    27    28 1   
    71    27    91 1   
    72    27    92 1   
    73    28    29 1   
    74    28    93 1   
    75    28    94 1   
    76    29    95 1   
    77    29    96 1   
    78    29    97 1   
    79    31    32 2   
    80    31    33 1   
    81    33    34 1   
    82    33    98 1   
    83    33    99 1   
    84    34    35 1   
    85    34   100 1   
    86    34   101 1   
    87    35    36 1   
    88    35   102 1   
    89    35   103 1   
    90    36    37 1   
    91    36   104 1   
    92    36   105 1   
    93    37    38 1   
    94    37   106 1   
    95    37   107 1   
    96    38    39 1   
    97    38   108 1   
    98    38   109 1   
    99    39    40 1   
   100    39   110 1   
   101    39   111 1   
   102    40    42 2   
   103    40   112 1   
   104    42    43 1   
   105    42   113 1   
   106    43    44 1   
   107    43   114 1   
   108    43   115 1   
   109    44    45 1   
   110    44   116 1   
   111    44   117 1   
   112    45    46 1   
   113    45   118 1   
   114    45   119 1   
   115    46    47 1   
   116    46   120 1   
   117    46   121 1   
   118    47    48 1   
   119    47   122 1   
   120    47   123 1   
   121    48    49 1   
   122    48   124 1   
   123    48   125 1   
   124    49    50 1   
   125    49   126 1   
   126    49   127 1   
   127    50   128 1   
   128    50   129 1   
   129    50   130 1   
@<TRIPOS>SUBSTRUCTURE
     1 L9Q         1 TEMP              0 ****  ****    0 ROOT
