@<TRIPOS>MOLECULE
L9Q
  130   129     1     0     0
SMALL
abcg2


@<TRIPOS>ATOM
      1 N            3.9590    -5.3640     2.0940 n8         1 L9Q      -0.979200
      2 P            0.0870    -5.7500     2.8060 p5         1 L9Q       1.397800
      3 C1          -1.7760    -6.5770     1.1140 c3         1 L9Q       0.220600
      4 C2          -1.8870    -6.3740    -0.3880 c3         1 L9Q       0.158300
      5 O2          -2.5700    -5.1540    -0.7020 os         1 L9Q      -0.417100
      6 C3          -0.5680    -6.3420    -1.1270 c3         1 L9Q       0.176600
      7 O3           0.1440    -5.1650    -0.7750 os         1 L9Q      -0.398100
      8 C4           2.2710    -7.1510     2.2780 c3         1 L9Q       0.244600
      9 C5           3.5790    -6.6970     1.6630 c3         1 L9Q       0.123800
     10 C11          1.4490    -5.1280    -1.0130 c          1 L9Q       0.620100
     11 O11          2.0270    -5.9750    -1.6520 o          1 L9Q      -0.542000
     12 C12          2.0900    -3.9300    -0.3790 c3         1 L9Q      -0.152400
     13 C13          3.4590    -3.5880    -0.9420 c3         1 L9Q      -0.054400
     14 C14          4.0670    -2.3840    -0.2350 c3         1 L9Q      -0.081400
     15 C15          5.4240    -1.9760    -0.7920 c3         1 L9Q      -0.072400
     16 C16          6.0130    -0.7580    -0.0910 c3         1 L9Q      -0.076400
     17 C17          7.3460    -0.3050    -0.6750 c3         1 L9Q      -0.073400
     18 C18          7.9150     0.9280     0.0140 c3         1 L9Q      -0.075400
     19 C19          9.2300     1.4070    -0.5900 c3         1 L9Q      -0.074400
     20 O1P          0.5140    -4.3900     3.2530 o          1 L9Q      -0.819500
     21 C20          9.7860     2.6530     0.0880 c3         1 L9Q      -0.074400
     22 C21         11.0890     3.1460    -0.5290 c3         1 L9Q      -0.074400
     23 C22         11.6360     4.4020     0.1380 c3         1 L9Q      -0.074400
     24 C23         12.9300     4.9040    -0.4890 c3         1 L9Q      -0.074400
     25 C24         13.4720     6.1670     0.1690 c3         1 L9Q      -0.074400
     26 C25         14.7600     6.6740    -0.4690 c3         1 L9Q      -0.074400
     27 C26         15.3000     7.9410     0.1830 c3         1 L9Q      -0.075400
     28 C27         16.5820     8.4520    -0.4650 c3         1 L9Q      -0.075400
     29 C28         17.1180     9.7180     0.1880 c3         1 L9Q      -0.088100
     30 O2P         -0.3140    -6.7920     3.8090 o          1 L9Q      -0.819500
     31 C31         -3.9000    -5.1300    -0.7020 c          1 L9Q       0.601100
     32 O31         -4.5860    -6.0830    -0.4300 o          1 L9Q      -0.514000
     33 C32         -4.4170    -3.7750    -1.1010 c3         1 L9Q      -0.141400
     34 C33         -5.9230    -3.6250    -0.9600 c3         1 L9Q      -0.066400
     35 C34         -6.4000    -2.2480    -1.4070 c3         1 L9Q      -0.076400
     36 C35         -7.8990    -2.0530    -1.2220 c3         1 L9Q      -0.074400
     37 C36         -8.3920    -0.6930    -1.7000 c3         1 L9Q      -0.075400
     38 C37         -9.8730    -0.4640    -1.4250 c3         1 L9Q      -0.072400
     39 C38        -10.3730     0.8880    -1.9370 c3         1 L9Q      -0.045200
     40 C39        -11.8250     1.0980    -1.6380 c2         1 L9Q      -0.211200
     41 O3P         -1.1230    -5.4960     1.7340 os         1 L9Q      -0.564400
     42 C40        -12.3650     2.0100    -0.8300 c2         1 L9Q      -0.220200
     43 C41        -11.6580     3.0840    -0.0630 c3         1 L9Q      -0.042200
     44 C42        -12.0800     4.4830    -0.5140 c3         1 L9Q      -0.072400
     45 C43        -11.3790     5.5950     0.2550 c3         1 L9Q      -0.075400
     46 C44        -11.8110     6.9880    -0.1850 c3         1 L9Q      -0.073400
     47 C45        -11.0910     8.1070     0.5580 c3         1 L9Q      -0.075400
     48 C46        -11.5300     9.4980     0.1180 c3         1 L9Q      -0.075400
     49 C47        -10.8050    10.6210     0.8500 c3         1 L9Q      -0.075400
     50 C48        -11.2540    12.0050     0.4020 c3         1 L9Q      -0.088100
     51 O4P          1.1810    -6.4050     1.7740 os         1 L9Q      -0.616400
     52 HN           4.2260    -5.3830     3.0700 hn         1 L9Q       0.380500
     53 HNA          4.7800    -5.0640     1.5850 hn         1 L9Q       0.380500
     54 H1          -2.7800    -6.6900     1.5350 h1         1 L9Q       0.031700
     55 H1A         -1.2660    -7.5330     1.2740 h1         1 L9Q       0.031700
     56 H2          -2.4410    -7.2310    -0.7860 h1         1 L9Q       0.045700
     57 H3          -0.0030    -7.2390    -0.8660 h1         1 L9Q       0.044700
     58 H3A         -0.7470    -6.3620    -2.2060 h1         1 L9Q       0.044700
     59 H4           2.1230    -8.2090     2.0370 h1         1 L9Q       0.017200
     60 H4A          2.3430    -7.0900     3.3700 h1         1 L9Q       0.017200
     61 H5           3.4760    -6.6950     0.5750 h1         1 L9Q       0.022200
     62 H5A          4.3260    -7.4690     1.9020 h1         1 L9Q       0.022200
     63 H12          1.4150    -3.0730    -0.4560 hc         1 L9Q       0.105200
     64 H12A         2.1800    -4.1620     0.6890 hc         1 L9Q       0.105200
     65 H13          4.1290    -4.4460    -0.8380 hc         1 L9Q       0.035200
     66 H13A         3.3850    -3.3830    -2.0150 hc         1 L9Q       0.035200
     67 H14          3.3780    -1.5340    -0.3070 hc         1 L9Q       0.048200
     68 H14A         4.1600    -2.6090     0.8330 hc         1 L9Q       0.048200
     69 H15          6.1220    -2.8170    -0.7120 hc         1 L9Q       0.031200
     70 H15A         5.3260    -1.7640    -1.8630 hc         1 L9Q       0.031200
     71 H16          5.2970     0.0700    -0.1460 hc         1 L9Q       0.039200
     72 H16A         6.1390    -0.9780     0.9750 hc         1 L9Q       0.039200
     73 H17          8.0700    -1.1250    -0.6140 hc         1 L9Q       0.033700
     74 H17A         7.2180    -0.0960    -1.7430 hc         1 L9Q       0.033700
     75 H18          7.1800     1.7390    -0.0330 hc         1 L9Q       0.037700
     76 H18A         8.0610     0.7150     1.0790 hc         1 L9Q       0.037700
     77 H19          9.9710     0.6020    -0.5350 hc         1 L9Q       0.035200
     78 H19A         9.0840     1.6100    -1.6560 hc         1 L9Q       0.035200
     79 H20          9.0380     3.4530     0.0420 hc         1 L9Q       0.037200
     80 H20A         9.9430     2.4490     1.1530 hc         1 L9Q       0.037200
     81 H21         11.8400     2.3510    -0.4770 hc         1 L9Q       0.035700
     82 H21A        10.9310     3.3430    -1.5950 hc         1 L9Q       0.035700
     83 H22         10.8800     5.1950     0.0920 hc         1 L9Q       0.037200
     84 H22A        11.8010     4.2050     1.2030 hc         1 L9Q       0.037200
     85 H23         13.6880     4.1140    -0.4400 hc         1 L9Q       0.036200
     86 H23A        12.7640     5.0950    -1.5560 hc         1 L9Q       0.036200
     87 H24         12.7110     6.9540     0.1240 hc         1 L9Q       0.036700
     88 H24A        13.6450     5.9750     1.2340 hc         1 L9Q       0.036700
     89 H25         15.5220     5.8880    -0.4220 hc         1 L9Q       0.036200
     90 H25A        14.5860     6.8610    -1.5340 hc         1 L9Q       0.036200
     91 H26         14.5360     8.7250     0.1420 hc         1 L9Q       0.036700
     92 H26A        15.4830     7.7530     1.2470 hc         1 L9Q       0.036700
     93 H27         17.3450     7.6680    -0.4250 hc         1 L9Q       0.035700
     94 H27A        16.3980     8.6400    -1.5280 hc         1 L9Q       0.035700
     95 H28         16.3830    10.5250     0.1460 hc         1 L9Q       0.030700
     96 H28A        17.3600     9.5500     1.2390 hc         1 L9Q       0.030700
     97 H28B        18.0240    10.0700    -0.3070 hc         1 L9Q       0.030700
     98 H32         -3.8970    -3.0160    -0.5080 hc         1 L9Q       0.071700
     99 H32A        -4.1090    -3.5950    -2.1370 hc         1 L9Q       0.071700
    100 H33         -6.4300    -4.3930    -1.5490 hc         1 L9Q       0.051700
    101 H33A        -6.2140    -3.7900     0.0810 hc         1 L9Q       0.051700
    102 H34         -5.8650    -1.4740    -0.8480 hc         1 L9Q       0.036700
    103 H34A        -6.1390    -2.0970    -2.4610 hc         1 L9Q       0.036700
    104 H35         -8.4390    -2.8430    -1.7550 hc         1 L9Q       0.039200
    105 H35A        -8.1490    -2.1780    -0.1620 hc         1 L9Q       0.039200
    106 H36         -7.8100     0.0970    -1.2130 hc         1 L9Q       0.036200
    107 H36A        -8.1990    -0.5940    -2.7740 hc         1 L9Q       0.036200
    108 H37        -10.4600    -1.2660    -1.8840 hc         1 L9Q       0.039700
    109 H37A       -10.0560    -0.5290    -0.3480 hc         1 L9Q       0.039700
    110 H38         -9.7640     1.6880    -1.5090 hc         1 L9Q       0.043700
    111 H38A       -10.2200     0.9320    -3.0210 hc         1 L9Q       0.043700
    112 H39        -12.5000     0.4000    -2.1280 ha         1 L9Q       0.163000
    113 H40        -13.4470     2.0040    -0.7190 ha         1 L9Q       0.161000
    114 H41        -11.8870     2.9760     1.0030 hc         1 L9Q       0.045700
    115 H41A       -10.5740     2.9860    -0.1540 hc         1 L9Q       0.045700
    116 H42        -11.8730     4.5930    -1.5840 hc         1 L9Q       0.037200
    117 H42A       -13.1650     4.5890    -0.4030 hc         1 L9Q       0.037200
    118 H43        -11.5720     5.4760     1.3270 hc         1 L9Q       0.038700
    119 H43A       -10.2950     5.4940     0.1300 hc         1 L9Q       0.038700
    120 H44        -11.6370     7.0980    -1.2610 hc         1 L9Q       0.035700
    121 H44A       -12.8920     7.0940    -0.0420 hc         1 L9Q       0.035700
    122 H45        -11.2600     7.9980     1.6350 hc         1 L9Q       0.038200
    123 H45A       -10.0100     8.0040     0.4100 hc         1 L9Q       0.038200
    124 H46        -11.3670     9.6050    -0.9610 hc         1 L9Q       0.036200
    125 H46A       -12.6100     9.6030     0.2710 hc         1 L9Q       0.036200
    126 H47        -10.9660    10.5140     1.9270 hc         1 L9Q       0.037200
    127 H47A        -9.7270    10.5170     0.6940 hc         1 L9Q       0.037200
    128 H48        -11.0740    12.1510    -0.6650 hc         1 L9Q       0.030033
    129 H48A       -12.3220    12.1480     0.5770 hc         1 L9Q       0.030033
    130 H48B       -10.7230    12.7940     0.9370 hc         1 L9Q       0.030033
@<TRIPOS>BOND
     1     1     9 1   
     2     1    52 1   
     3     1    53 1   
     4     2    20 1   
     5     2    30 1   
     6     2    41 1   
     7     2    51 1   
     8     3     4 1   
     9     3    41 1   
    10     3    54 1   
    11     3    55 1   
    12     4     5 1   
    13     4     6 1   
    14     4    56 1   
    15     5    31 1   
    16     6     7 1   
    17     6    57 1   
    18     6    58 1   
    19     7    10 1   
    20     8     9 1   
    21     8    51 1   
    22     8    59 1   
    23     8    60 1   
    24     9    61 1   
    25     9    62 1   
    26    10    11 2   
    27    10    12 1   
    28    12    13 1   
    29    12    63 1   
    30    12    64 1   
    31    13    14 1   
    32    13    65 1   
    33    13    66 1   
    34    14    15 1   
    35    14    67 1   
    36    14    68 1   
    37    15    16 1   
    38    15    69 1   
    39    15    70 1   
    40    16    17 1   
    41    16    71 1   
    42    16    72 1   
    43    17    18 1   
    44    17    73 1   
    45    17    74 1   
    46    18    19 1   
    47    18    75 1   
    48    18    76 1   
    49    19    21 1   
    50    19    77 1   
    51    19    78 1   
    52    21    22 1   
    53    21    79 1   
    54    21    80 1   
    55    22    23 1   
    56    22    81 1   
    57    22    82 1   
    58    23    24 1   
    59    23    83 1   
    60    23    84 1   
    61    24    25 1   
    62    24    85 1   
    63    24    86 1   
    64    25    26 1   
    65    25    87 1   
    66    25    88 1   
    67    26    27 1   
    68    26    89 1   
    69    26    90 1   
    70    27    28 1   
    71    27    91 1   
    72    27    92 1   
    73    28    29 1   
    74    28    93 1   
    75    28    94 1   
    76    29    95 1   
    77    29    96 1   
    78    29    97 1   
    79    31    32 2   
    80    31    33 1   
    81    33    34 1   
    82    33    98 1   
    83    33    99 1   
    84    34    35 1   
    85    34   100 1   
    86    34   101 1   
    87    35    36 1   
    88    35   102 1   
    89    35   103 1   
    90    36    37 1   
    91    36   104 1   
    92    36   105 1   
    93    37    38 1   
    94    37   106 1   
    95    37   107 1   
    96    38    39 1   
    97    38   108 1   
    98    38   109 1   
    99    39    40 1   
   100    39   110 1   
   101    39   111 1   
   102    40    42 2   
   103    40   112 1   
   104    42    43 1   
   105    42   113 1   
   106    43    44 1   
   107    43   114 1   
   108    43   115 1   
   109    44    45 1   
   110    44   116 1   
   111    44   117 1   
   112    45    46 1   
   113    45   118 1   
   114    45   119 1   
   115    46    47 1   
   116    46   120 1   
   117    46   121 1   
   118    47    48 1   
   119    47   122 1   
   120    47   123 1   
   121    48    49 1   
   122    48   124 1   
   123    48   125 1   
   124    49    50 1   
   125    49   126 1   
   126    49   127 1   
   127    50   128 1   
   128    50   129 1   
   129    50   130 1   
@<TRIPOS>SUBSTRUCTURE
     1 L9Q         1 TEMP              0 ****  ****    0 ROOT
