@<TRIPOS>MOLECULE
L9R
  140   139     1     0     0
SMALL
abcg2


@<TRIPOS>ATOM
      1 N           94.1010   -31.7120    12.3290 n4         1 L9R      -0.485000
      2 P           98.4350   -32.2900    11.5510 p5         1 L9R       1.380800
      3 C1          97.9030   -31.5540     9.0620 c3         1 L9R       0.237600
      4 C2          97.3290   -32.3010     7.8750 c3         1 L9R       0.153300
      5 O2          96.2970   -33.1560     8.3680 os         1 L9R      -0.458100
      6 C3          96.6910   -31.3600     6.8580 c3         1 L9R       0.152600
      7 O3          97.7320   -30.5620     6.3080 os         1 L9R      -0.441100
      8 C4          96.3020   -32.8600    13.0000 c3         1 L9R       0.214600
      9 C5          94.8050   -32.9550    12.8130 c3         1 L9R       0.085600
     10 C6          94.0560   -30.6910    13.4110 c3         1 L9R       0.071900
     11 C7          94.7490   -31.1160    11.1270 c3         1 L9R       0.071900
     12 C8          92.7070   -32.0980    11.9770 c3         1 L9R       0.071900
     13 C11         97.4850   -29.6340     5.3750 c          1 L9R       0.605100
     14 O11         98.4180   -28.9920     4.9700 o          1 L9R      -0.425000
     15 C12         96.0680   -29.4640     4.9020 c3         1 L9R      -0.186400
     16 C13         95.9120   -28.4490     3.7800 c3         1 L9R      -0.065400
     17 C14         94.4730   -28.3960     3.2820 c3         1 L9R      -0.076400
     18 C15         94.2640   -27.4020     2.1470 c3         1 L9R      -0.074400
     19 C16         92.8460   -27.4340     1.5900 c3         1 L9R      -0.074400
     20 C17         92.6120   -26.4380     0.4610 c3         1 L9R      -0.075400
     21 C18         91.2200   -26.5450    -0.1500 c3         1 L9R      -0.075400
     22 C19         90.9750   -25.5260    -1.2580 c3         1 L9R      -0.072400
     23 O1P         99.4770   -33.1840    12.1360 o          1 L9R      -0.797000
     24 C20         89.6560   -25.7100    -2.0030 c3         1 L9R      -0.073400
     25 C21         88.4110   -25.5110    -1.1460 c3         1 L9R      -0.076400
     26 C22         87.1210   -25.6670    -1.9420 c3         1 L9R      -0.073400
     27 C23         85.8490   -25.3970    -1.1430 c3         1 L9R      -0.073400
     28 C24         85.6000   -26.3700     0.0040 c3         1 L9R      -0.076400
     29 C25         84.2870   -26.0890     0.7290 c3         1 L9R      -0.074400
     30 C26         84.0280   -26.9830     1.9380 c3         1 L9R      -0.073400
     31 C27         83.7750   -28.4480     1.5970 c3         1 L9R      -0.076400
     32 C28         83.4690   -29.2910     2.8280 c3         1 L9R      -0.089100
     33 O2P         98.3340   -30.8420    11.9250 o          1 L9R      -0.797000
     34 C31         96.0340   -34.2970     7.7270 c          1 L9R       0.595100
     35 O31         96.6160   -34.6470     6.7320 o          1 L9R      -0.473000
     36 C32         94.9530   -35.0810     8.4150 c3         1 L9R      -0.133400
     37 C33         95.4580   -35.7420     9.7030 c3         1 L9R      -0.077400
     38 C34         94.4570   -36.7370    10.2840 c3         1 L9R      -0.082400
     39 C35         93.1190   -36.1480    10.7180 c3         1 L9R      -0.070400
     40 C36         92.1610   -37.2180    11.2310 c3         1 L9R      -0.080400
     41 C37         90.8440   -36.6850    11.7880 c3         1 L9R      -0.070400
     42 C38         90.0310   -35.8550    10.7910 c3         1 L9R      -0.044200
     43 C39         88.6450   -35.5620    11.2870 c2         1 L9R      -0.211200
     44 O3P         98.5310   -32.4700     9.9310 os         1 L9R      -0.566400
     45 C40         88.2520   -34.4640    11.9290 c2         1 L9R      -0.221200
     46 C41         89.1190   -33.2980    12.3060 c3         1 L9R      -0.039200
     47 C42         88.7100   -32.6640    13.6350 c3         1 L9R      -0.080400
     48 C43         89.6570   -31.5520    14.0630 c3         1 L9R      -0.072400
     49 C44         89.2120   -30.7990    15.3110 c3         1 L9R      -0.075400
     50 C45         90.2170   -29.7350    15.7520 c3         1 L9R      -0.076400
     51 C46         91.4600   -30.3120    16.4220 c3         1 L9R      -0.078400
     52 C47         92.5850   -29.2990    16.5930 c3         1 L9R      -0.079400
     53 C48         93.8170   -29.8910    17.2640 c3         1 L9R      -0.092100
     54 O4P         96.9430   -32.9780    11.7540 os         1 L9R      -0.602400
     55 H1          98.6330   -30.8260     8.6980 h1         1 L9R       0.033700
     56 H1A         97.1080   -30.9850     9.5540 h1         1 L9R       0.033700
     57 H2          98.1120   -32.8910     7.3910 h1         1 L9R       0.107700
     58 H3          96.1990   -31.9440     6.0760 h1         1 L9R       0.035200
     59 H3A         95.9380   -30.7350     7.3460 h1         1 L9R       0.035200
     60 H4          96.5870   -31.9440    13.5270 h1         1 L9R       0.057200
     61 H4A         96.5750   -33.6920    13.6570 h1         1 L9R       0.057200
     62 H5          94.3270   -33.2240    13.7550 hx         1 L9R       0.084700
     63 H5A         94.5820   -33.7420    12.0940 hx         1 L9R       0.084700
     64 H6          93.5060   -29.8230    13.0560 hx         1 L9R       0.094922
     65 H6A         93.5590   -31.1130    14.2800 hx         1 L9R       0.094922
     66 H6B         95.0640   -30.3880    13.6780 hx         1 L9R       0.094922
     67 H7          94.1200   -30.3050    10.7690 hx         1 L9R       0.094922
     68 H7A         95.7240   -30.7210    11.3950 hx         1 L9R       0.094922
     69 H7B         94.8520   -31.8750    10.3570 hx         1 L9R       0.094922
     70 H8          92.1500   -31.2130    11.6850 hx         1 L9R       0.094922
     71 H8A         92.7250   -32.8000    11.1470 hx         1 L9R       0.094922
     72 H8B         92.2380   -32.5600    12.8410 hx         1 L9R       0.094922
     73 H12         95.6800   -30.4350     4.5760 hc         1 L9R       0.059200
     74 H12A        95.4450   -29.1770     5.7560 hc         1 L9R       0.059200
     75 H13         96.2220   -27.4590     4.1240 hc         1 L9R       0.058200
     76 H13A        96.5730   -28.7120     2.9500 hc         1 L9R       0.058200
     77 H14         94.1740   -29.3940     2.9440 hc         1 L9R       0.033700
     78 H14A        93.8040   -28.1450     4.1120 hc         1 L9R       0.033700
     79 H15         94.5010   -26.3910     2.4950 hc         1 L9R       0.042200
     80 H15A        94.9730   -27.6180     1.3400 hc         1 L9R       0.042200
     81 H16         92.6270   -28.4450     1.2300 hc         1 L9R       0.035200
     82 H16A        92.1310   -27.2410     2.3980 hc         1 L9R       0.035200
     83 H17         92.7710   -25.4200     0.8340 hc         1 L9R       0.038200
     84 H17A        93.3630   -26.5930    -0.3210 hc         1 L9R       0.038200
     85 H18         91.0830   -27.5560    -0.5520 hc         1 L9R       0.036700
     86 H18A        90.4710   -26.4310     0.6400 hc         1 L9R       0.036700
     87 H19         91.0190   -24.5160    -0.8360 hc         1 L9R       0.038200
     88 H19A        91.7970   -25.5880    -1.9790 hc         1 L9R       0.038200
     89 H20         89.6240   -25.0080    -2.8420 hc         1 L9R       0.037200
     90 H20A        89.6310   -26.7120    -2.4470 hc         1 L9R       0.037200
     91 H21         88.4180   -26.2210    -0.3150 hc         1 L9R       0.038200
     92 H21A        88.4380   -24.5130    -0.6910 hc         1 L9R       0.038200
     93 H22         87.1490   -24.9850    -2.7980 hc         1 L9R       0.037200
     94 H22A        87.0780   -26.6780    -2.3650 hc         1 L9R       0.037200
     95 H23         85.8790   -24.3750    -0.7490 hc         1 L9R       0.037200
     96 H23A        84.9910   -25.4320    -1.8230 hc         1 L9R       0.037200
     97 H24         85.6050   -27.3930    -0.3870 hc         1 L9R       0.038200
     98 H24A        86.4200   -26.3190     0.7280 hc         1 L9R       0.038200
     99 H25         84.2870   -25.0440     1.0560 hc         1 L9R       0.036700
    100 H25A        83.4530   -26.1830     0.0240 hc         1 L9R       0.036700
    101 H26         84.8770   -26.9130     2.6290 hc         1 L9R       0.036200
    102 H26A        83.1620   -26.5960     2.4850 hc         1 L9R       0.036200
    103 H27         82.9410   -28.5120     0.8910 hc         1 L9R       0.038200
    104 H27A        84.6420   -28.8690     1.0810 hc         1 L9R       0.038200
    105 H28         83.3020   -30.3360     2.5670 hc         1 L9R       0.029700
    106 H28A        84.2940   -29.2570     3.5420 hc         1 L9R       0.029700
    107 H28B        82.5750   -28.9320     3.3420 hc         1 L9R       0.029700
    108 H32         94.1120   -34.4170     8.6290 hc         1 L9R       0.058200
    109 H32A        94.6000   -35.8460     7.7230 hc         1 L9R       0.058200
    110 H33         96.3860   -36.2780     9.4890 hc         1 L9R       0.069700
    111 H33A        95.7160   -34.9750    10.4370 hc         1 L9R       0.069700
    112 H34         94.2770   -37.5260     9.5460 hc         1 L9R       0.047700
    113 H34A        94.9210   -37.2300    11.1430 hc         1 L9R       0.047700
    114 H35         93.2810   -35.4010    11.5050 hc         1 L9R       0.021200
    115 H35A        92.6550   -35.6170     9.8820 hc         1 L9R       0.021200
    116 H36         91.9510   -37.9220    10.4180 hc         1 L9R       0.046700
    117 H36A        92.6610   -37.8000    12.0110 hc         1 L9R       0.046700
    118 H37         90.2410   -37.5330    12.1260 hc         1 L9R       0.040200
    119 H37A        91.0380   -36.0810    12.6800 hc         1 L9R       0.040200
    120 H38         90.5590   -34.9280    10.5590 hc         1 L9R       0.039700
    121 H38A        89.9610   -36.4050     9.8480 hc         1 L9R       0.039700
    122 H39         87.9070   -36.3400    11.1140 ha         1 L9R       0.176000
    123 H40         87.2090   -34.3910    12.2250 ha         1 L9R       0.174000
    124 H41         90.1630   -33.6180    12.3650 hc         1 L9R       0.032700
    125 H41A        89.0820   -32.5300    11.5240 hc         1 L9R       0.032700
    126 H42         87.6920   -32.2710    13.5480 hc         1 L9R       0.049200
    127 H42A        88.6750   -33.4340    14.4120 hc         1 L9R       0.049200
    128 H43         90.6490   -31.9840    14.2290 hc         1 L9R       0.020700
    129 H43A        89.7720   -30.8340    13.2420 hc         1 L9R       0.020700
    130 H44         88.2440   -30.3290    15.1120 hc         1 L9R       0.047200
    131 H44A        89.0440   -31.5070    16.1310 hc         1 L9R       0.047200
    132 H45         90.5140   -29.1420    14.8790 hc         1 L9R       0.040700
    133 H45A        89.7360   -29.0340    16.4410 hc         1 L9R       0.040700
    134 H46         91.1840   -30.7230    17.3990 hc         1 L9R       0.033200
    135 H46A        91.8330   -31.1640    15.8440 hc         1 L9R       0.033200
    136 H47         92.8580   -28.8960    15.6120 hc         1 L9R       0.036700
    137 H47A        92.2240   -28.4450    17.1740 hc         1 L9R       0.036700
    138 H48         94.6280   -29.1660    17.3290 hc         1 L9R       0.035367
    139 H48A        93.5920   -30.2290    18.2770 hc         1 L9R       0.035367
    140 H48B        94.1910   -30.7550    16.7100 hc         1 L9R       0.035367
@<TRIPOS>BOND
     1     1     9 1   
     2     1    10 1   
     3     1    11 1   
     4     1    12 1   
     5     2    23 1   
     6     2    33 1   
     7     2    44 1   
     8     2    54 1   
     9     3     4 1   
    10     3    44 1   
    11     3    55 1   
    12     3    56 1   
    13     4     5 1   
    14     4     6 1   
    15     4    57 1   
    16     5    34 1   
    17     6     7 1   
    18     6    58 1   
    19     6    59 1   
    20     7    13 1   
    21     8     9 1   
    22     8    54 1   
    23     8    60 1   
    24     8    61 1   
    25     9    62 1   
    26     9    63 1   
    27    10    64 1   
    28    10    65 1   
    29    10    66 1   
    30    11    67 1   
    31    11    68 1   
    32    11    69 1   
    33    12    70 1   
    34    12    71 1   
    35    12    72 1   
    36    13    14 2   
    37    13    15 1   
    38    15    16 1   
    39    15    73 1   
    40    15    74 1   
    41    16    17 1   
    42    16    75 1   
    43    16    76 1   
    44    17    18 1   
    45    17    77 1   
    46    17    78 1   
    47    18    19 1   
    48    18    79 1   
    49    18    80 1   
    50    19    20 1   
    51    19    81 1   
    52    19    82 1   
    53    20    21 1   
    54    20    83 1   
    55    20    84 1   
    56    21    22 1   
    57    21    85 1   
    58    21    86 1   
    59    22    24 1   
    60    22    87 1   
    61    22    88 1   
    62    24    25 1   
    63    24    89 1   
    64    24    90 1   
    65    25    26 1   
    66    25    91 1   
    67    25    92 1   
    68    26    27 1   
    69    26    93 1   
    70    26    94 1   
    71    27    28 1   
    72    27    95 1   
    73    27    96 1   
    74    28    29 1   
    75    28    97 1   
    76    28    98 1   
    77    29    30 1   
    78    29    99 1   
    79    29   100 1   
    80    30    31 1   
    81    30   101 1   
    82    30   102 1   
    83    31    32 1   
    84    31   103 1   
    85    31   104 1   
    86    32   105 1   
    87    32   106 1   
    88    32   107 1   
    89    34    35 2   
    90    34    36 1   
    91    36    37 1   
    92    36   108 1   
    93    36   109 1   
    94    37    38 1   
    95    37   110 1   
    96    37   111 1   
    97    38    39 1   
    98    38   112 1   
    99    38   113 1   
   100    39    40 1   
   101    39   114 1   
   102    39   115 1   
   103    40    41 1   
   104    40   116 1   
   105    40   117 1   
   106    41    42 1   
   107    41   118 1   
   108    41   119 1   
   109    42    43 1   
   110    42   120 1   
   111    42   121 1   
   112    43    45 2   
   113    43   122 1   
   114    45    46 1   
   115    45   123 1   
   116    46    47 1   
   117    46   124 1   
   118    46   125 1   
   119    47    48 1   
   120    47   126 1   
   121    47   127 1   
   122    48    49 1   
   123    48   128 1   
   124    48   129 1   
   125    49    50 1   
   126    49   130 1   
   127    49   131 1   
   128    50    51 1   
   129    50   132 1   
   130    50   133 1   
   131    51    52 1   
   132    51   134 1   
   133    51   135 1   
   134    52    53 1   
   135    52   136 1   
   136    52   137 1   
   137    53   138 1   
   138    53   139 1   
   139    53   140 1   
@<TRIPOS>SUBSTRUCTURE
     1 L9R         1 TEMP              0 ****  ****    0 ROOT
