@<TRIPOS>MOLECULE
L9R
  140   139     1     0     0
SMALL
No Charge or Current Charge


@<TRIPOS>ATOM
      1 N           92.8320   -31.4620    11.8730 n4         1 L9R      -0.485000
      2 P           96.9410   -31.3200    12.2620 p5         1 L9R       1.380800
      3 C1          97.1520   -30.5340     9.7390 c3         1 L9R       0.237600
      4 C2          96.8630   -31.5020     8.5580 c3         1 L9R       0.153300
      5 O2          95.8350   -32.4430     8.9580 os         1 L9R      -0.458100
      6 C3          96.3710   -30.7510     7.2930 c3         1 L9R       0.152600
      7 O3          97.4170   -29.8550     6.8600 os         1 L9R      -0.441100
      8 C4          94.8960   -32.8270    12.9190 c3         1 L9R       0.214600
      9 C5          93.4640   -32.7990    12.3250 c3         1 L9R       0.085600
     10 C6          92.9100   -30.4130    12.9920 c3         1 L9R       0.071900
     11 C7          93.5430   -30.9280    10.6280 c3         1 L9R       0.071900
     12 C8          91.3620   -31.7000    11.5180 c3         1 L9R       0.071900
     13 C11         97.2730   -29.0450     5.7520 c          1 L9R       0.605100
     14 O11         98.1720   -28.2980     5.3990 o          1 L9R      -0.425000
     15 C12         95.9190   -29.1240     5.0030 c3         1 L9R      -0.186400
     16 C13         95.7910   -28.1950     3.7700 c3         1 L9R      -0.065400
     17 C14         94.4220   -28.3180     3.0680 c3         1 L9R      -0.076400
     18 C15         94.2880   -27.3940     1.8380 c3         1 L9R      -0.074400
     19 C16         92.9180   -27.5170     1.1360 c3         1 L9R      -0.074400
     20 C17         92.7830   -26.5920    -0.0930 c3         1 L9R      -0.075400
     21 C18         91.4120   -26.7170    -0.7950 c3         1 L9R      -0.075400
     22 C19         91.2770   -25.7860    -2.0230 c3         1 L9R      -0.072400
     23 O1P         97.8580   -31.8020    13.3340 o          1 L9R      -0.797000
     24 C20         89.9520   -25.9450    -2.8070 c3         1 L9R      -0.073400
     25 C21         88.6870   -25.5280    -2.0190 c3         1 L9R      -0.076400
     26 C22         87.3950   -25.6240    -2.8640 c3         1 L9R      -0.073400
     27 C23         86.1170   -25.1370    -2.1390 c3         1 L9R      -0.073400
     28 C24         85.7040   -25.9950    -0.9200 c3         1 L9R      -0.076400
     29 C25         84.3720   -25.5330    -0.2840 c3         1 L9R      -0.074400
     30 C26         83.9710   -26.3060     0.9960 c3         1 L9R      -0.073400
     31 C27         83.6520   -27.8020     0.7680 c3         1 L9R      -0.076400
     32 C28         83.1720   -28.5150     2.0480 c3         1 L9R      -0.089100
     33 O2P         96.3180   -30.0080    12.5950 o          1 L9R      -0.797000
     34 C31         95.7080   -33.6180     8.2640 c          1 L9R       0.595100
     35 O31         96.4170   -33.9460     7.3230 o          1 L9R      -0.473000
     36 C32         94.6550   -34.5410     8.8830 c3         1 L9R      -0.133400
     37 C33         95.3050   -35.5060     9.9080 c3         1 L9R      -0.077400
     38 C34         94.4040   -36.6840    10.3480 c3         1 L9R      -0.082400
     39 C35         93.1380   -36.2760    11.1340 c3         1 L9R      -0.070400
     40 C36         92.3180   -37.5010    11.6040 c3         1 L9R      -0.080400
     41 C37         91.0540   -37.1540    12.4260 c3         1 L9R      -0.070400
     42 C38         89.9240   -36.4870    11.6100 c3         1 L9R      -0.044200
     43 C39         88.6890   -36.2340    12.4540 c2         1 L9R      -0.211200
     44 O3P         97.7130   -31.2610    10.8470 os         1 L9R      -0.566400
     45 C40         88.4430   -35.1550    13.2180 c2         1 L9R      -0.221200
     46 C41         89.3590   -33.9630    13.4290 c3         1 L9R      -0.039200
     47 C42         89.5930   -33.6540    14.9210 c3         1 L9R      -0.080400
     48 C43         90.6080   -32.5120    15.1420 c3         1 L9R      -0.072400
     49 C44         90.7980   -32.1440    16.6310 c3         1 L9R      -0.075400
     50 C45         91.8040   -30.9940    16.8730 c3         1 L9R      -0.076400
     51 C46         93.2810   -31.3730    16.6150 c3         1 L9R      -0.078400
     52 C47         94.2510   -30.1960    16.8500 c3         1 L9R      -0.079400
     53 C48         95.7260   -30.5690    16.6120 c3         1 L9R      -0.092100
     54 O4P         95.8410   -32.4390    11.9130 os         1 L9R      -0.602400
     55 H1          97.8680   -29.7710     9.4090 h1         1 L9R       0.033700
     56 H1A         96.2280   -30.0120    10.0120 h1         1 L9R       0.033700
     57 H2          97.8010   -32.0220     8.3210 h1         1 L9R       0.107700
     58 H3          96.1380   -31.4790     6.5060 h1         1 L9R       0.035200
     59 H3A         95.4560   -30.1990     7.5450 h1         1 L9R       0.035200
     60 H4          94.9380   -32.1680    13.7950 h1         1 L9R       0.057200
     61 H4A         95.1140   -33.8470    13.2620 h1         1 L9R       0.057200
     62 H5          92.7960   -33.2210    13.0780 hx         1 L9R       0.084700
     63 H5A         93.4460   -33.4690    11.4650 hx         1 L9R       0.084700
     64 H6          92.4450   -29.4870    12.6480 hx         1 L9R       0.094922
     65 H6A         92.3820   -30.7820    13.8720 hx         1 L9R       0.094922
     66 H6B         93.9560   -30.2250    13.2390 hx         1 L9R       0.094922
     67 H7          93.0460   -30.0170    10.2890 hx         1 L9R       0.094922
     68 H7A         94.5790   -30.7080    10.8800 hx         1 L9R       0.094922
     69 H7B         93.5110   -31.6840     9.8410 hx         1 L9R       0.094922
     70 H8          90.9220   -30.7680    11.1570 hx         1 L9R       0.094922
     71 H8A         91.2970   -32.4640    10.7400 hx         1 L9R       0.094922
     72 H8B         90.8280   -32.0340    12.4090 hx         1 L9R       0.094922
     73 H12         95.7340   -30.1680     4.7280 hc         1 L9R       0.059200
     74 H12A        95.1140   -28.9340     5.7220 hc         1 L9R       0.059200
     75 H13         95.9430   -27.1540     4.0840 hc         1 L9R       0.058200
     76 H13A        96.5870   -28.4330     3.0530 hc         1 L9R       0.058200
     77 H14         94.2700   -29.3590     2.7540 hc         1 L9R       0.033700
     78 H14A        93.6260   -28.0810     3.7850 hc         1 L9R       0.033700
     79 H15         94.4390   -26.3530     2.1510 hc         1 L9R       0.042200
     80 H15A        95.0830   -27.6310     1.1200 hc         1 L9R       0.042200
     81 H16         92.7670   -28.5580     0.8220 hc         1 L9R       0.035200
     82 H16A        92.1230   -27.2810     1.8540 hc         1 L9R       0.035200
     83 H17         92.9330   -25.5520     0.2200 hc         1 L9R       0.038200
     84 H17A        93.5780   -26.8290    -0.8110 hc         1 L9R       0.038200
     85 H18         91.2630   -27.7560    -1.1120 hc         1 L9R       0.036700
     86 H18A        90.6240   -26.4850    -0.0690 hc         1 L9R       0.036700
     87 H19         91.3830   -24.7420    -1.7020 hc         1 L9R       0.038200
     88 H19A        92.1080   -25.9870    -2.7100 hc         1 L9R       0.038200
     89 H20         90.0160   -25.3370    -3.7170 hc         1 L9R       0.037200
     90 H20A        89.8490   -26.9880    -3.1340 hc         1 L9R       0.037200
     91 H21         88.5870   -26.1690    -1.1360 hc         1 L9R       0.038200
     92 H21A        88.8080   -24.4980    -1.6610 hc         1 L9R       0.038200
     93 H22         87.5230   -25.0250    -3.7740 hc         1 L9R       0.037200
     94 H22A        87.2500   -26.6610    -3.1910 hc         1 L9R       0.037200
     95 H23         86.2580   -24.0960    -1.8210 hc         1 L9R       0.037200
     96 H23A        85.2920   -25.1340    -2.8620 hc         1 L9R       0.037200
     97 H24         85.6170   -27.0410    -1.2380 hc         1 L9R       0.038200
     98 H24A        86.4910   -25.9530    -0.1570 hc         1 L9R       0.038200
     99 H25         84.4540   -24.4690    -0.0310 hc         1 L9R       0.036700
    100 H25A        83.5660   -25.6180    -1.0240 hc         1 L9R       0.036700
    101 H26         84.7720   -26.2130     1.7390 hc         1 L9R       0.036200
    102 H26A        83.0870   -25.8190     1.4280 hc         1 L9R       0.036200
    103 H27         82.8780   -27.8960    -0.0030 hc         1 L9R       0.038200
    104 H27A        84.5430   -28.3200     0.3950 hc         1 L9R       0.038200
    105 H28         82.9610   -29.5710     1.8400 hc         1 L9R       0.029700
    106 H28A        83.9400   -28.4660     2.8300 hc         1 L9R       0.029700
    107 H28B        82.2560   -28.0510     2.4310 hc         1 L9R       0.029700
    108 H32         93.9060   -33.9380     9.4090 hc         1 L9R       0.058200
    109 H32A        94.1880   -35.1290     8.0850 hc         1 L9R       0.058200
    110 H33         96.2140   -35.9300     9.4630 hc         1 L9R       0.069700
    111 H33A        95.6310   -34.9410    10.7900 hc         1 L9R       0.069700
    112 H34         94.1100   -37.2610     9.4620 hc         1 L9R       0.047700
    113 H34A        95.0030   -37.3590    10.9720 hc         1 L9R       0.047700
    114 H35         93.4320   -35.6870    12.0110 hc         1 L9R       0.021200
    115 H35A        92.5120   -35.6330    10.5040 hc         1 L9R       0.021200
    116 H36         92.0280   -38.1030    10.7340 hc         1 L9R       0.046700
    117 H36A        92.9640   -38.1370    12.2220 hc         1 L9R       0.046700
    118 H37         90.6640   -38.0800    12.8660 hc         1 L9R       0.040200
    119 H37A        91.3330   -36.5050    13.2650 hc         1 L9R       0.040200
    120 H38         90.2860   -35.5480    11.1770 hc         1 L9R       0.039700
    121 H38A        89.6630   -37.1300    10.7600 hc         1 L9R       0.039700
    122 H39         87.9450   -37.0310    12.3930 ha         1 L9R       0.176000
    123 H40         87.5020   -35.0910    13.7700 ha         1 L9R       0.174000
    124 H41         90.3320   -34.1270    12.9540 hc         1 L9R       0.032700
    125 H41A        88.9200   -33.0800    12.9480 hc         1 L9R       0.032700
    126 H42         88.6360   -33.3880    15.3880 hc         1 L9R       0.049200
    127 H42A        89.9560   -34.5590    15.4230 hc         1 L9R       0.049200
    128 H43         91.5700   -32.8150    14.7160 hc         1 L9R       0.020700
    129 H43A        90.2760   -31.6220    14.5940 hc         1 L9R       0.020700
    130 H44         89.8250   -31.8460    17.0440 hc         1 L9R       0.047200
    131 H44A        91.1180   -33.0310    17.1930 hc         1 L9R       0.047200
    132 H45         91.5290   -30.1360    16.2460 hc         1 L9R       0.040700
    133 H45A        91.7060   -30.6630    17.9150 hc         1 L9R       0.040700
    134 H46         93.5580   -32.2060    17.2740 hc         1 L9R       0.033200
    135 H46A        93.4010   -31.7310    15.5860 hc         1 L9R       0.033200
    136 H47         93.9830   -29.3650    16.1850 hc         1 L9R       0.036700
    137 H47A        94.1380   -29.8320    17.8780 hc         1 L9R       0.036700
    138 H48         96.3750   -29.7060    16.8050 hc         1 L9R       0.035367
    139 H48A        96.0330   -31.3850    17.2780 hc         1 L9R       0.035367
    140 H48B        95.8840   -30.8900    15.5760 hc         1 L9R       0.035367
@<TRIPOS>BOND
     1     1     9 1   
     2     1    10 1   
     3     1    11 1   
     4     1    12 1   
     5     2    23 1   
     6     2    33 1   
     7     2    44 1   
     8     2    54 1   
     9     3     4 1   
    10     3    44 1   
    11     3    55 1   
    12     3    56 1   
    13     4     5 1   
    14     4     6 1   
    15     4    57 1   
    16     5    34 1   
    17     6     7 1   
    18     6    58 1   
    19     6    59 1   
    20     7    13 1   
    21     8     9 1   
    22     8    54 1   
    23     8    60 1   
    24     8    61 1   
    25     9    62 1   
    26     9    63 1   
    27    10    64 1   
    28    10    65 1   
    29    10    66 1   
    30    11    67 1   
    31    11    68 1   
    32    11    69 1   
    33    12    70 1   
    34    12    71 1   
    35    12    72 1   
    36    13    14 2   
    37    13    15 1   
    38    15    16 1   
    39    15    73 1   
    40    15    74 1   
    41    16    17 1   
    42    16    75 1   
    43    16    76 1   
    44    17    18 1   
    45    17    77 1   
    46    17    78 1   
    47    18    19 1   
    48    18    79 1   
    49    18    80 1   
    50    19    20 1   
    51    19    81 1   
    52    19    82 1   
    53    20    21 1   
    54    20    83 1   
    55    20    84 1   
    56    21    22 1   
    57    21    85 1   
    58    21    86 1   
    59    22    24 1   
    60    22    87 1   
    61    22    88 1   
    62    24    25 1   
    63    24    89 1   
    64    24    90 1   
    65    25    26 1   
    66    25    91 1   
    67    25    92 1   
    68    26    27 1   
    69    26    93 1   
    70    26    94 1   
    71    27    28 1   
    72    27    95 1   
    73    27    96 1   
    74    28    29 1   
    75    28    97 1   
    76    28    98 1   
    77    29    30 1   
    78    29    99 1   
    79    29   100 1   
    80    30    31 1   
    81    30   101 1   
    82    30   102 1   
    83    31    32 1   
    84    31   103 1   
    85    31   104 1   
    86    32   105 1   
    87    32   106 1   
    88    32   107 1   
    89    34    35 2   
    90    34    36 1   
    91    36    37 1   
    92    36   108 1   
    93    36   109 1   
    94    37    38 1   
    95    37   110 1   
    96    37   111 1   
    97    38    39 1   
    98    38   112 1   
    99    38   113 1   
   100    39    40 1   
   101    39   114 1   
   102    39   115 1   
   103    40    41 1   
   104    40   116 1   
   105    40   117 1   
   106    41    42 1   
   107    41   118 1   
   108    41   119 1   
   109    42    43 1   
   110    42   120 1   
   111    42   121 1   
   112    43    45 2   
   113    43   122 1   
   114    45    46 1   
   115    45   123 1   
   116    46    47 1   
   117    46   124 1   
   118    46   125 1   
   119    47    48 1   
   120    47   126 1   
   121    47   127 1   
   122    48    49 1   
   123    48   128 1   
   124    48   129 1   
   125    49    50 1   
   126    49   130 1   
   127    49   131 1   
   128    50    51 1   
   129    50   132 1   
   130    50   133 1   
   131    51    52 1   
   132    51   134 1   
   133    51   135 1   
   134    52    53 1   
   135    52   136 1   
   136    52   137 1   
   137    53   138 1   
   138    53   139 1   
   139    53   140 1   
@<TRIPOS>SUBSTRUCTURE
     1 L9R         1 TEMP              0 ****  ****    0 ROOT
