@<TRIPOS>MOLECULE
L9S
   73    78     1     0     0
SMALL
bcc


@<TRIPOS>ATOM
      1 C3           4.7290     1.4990     0.1990 c6         1 L9S       0.139800
      2 N4          -5.5170    -1.9550    -0.6990 nh         1 L9S      -0.693000
      3 C5           2.3330     1.1560     0.3310 c6         1 L9S       0.199800
      4 C7           0.9330     2.6790     1.7760 ca         1 L9S      -0.129000
      5 C14         -8.1970     1.1650     0.2080 ca         1 L9S      -0.223000
      6 C15         -8.6190    -0.1540     0.1070 ca         1 L9S      -0.057000
      7 C13         -6.8650     1.4100    -0.0440 ca         1 L9S       0.190900
      8 C12         -5.9420     0.4230    -0.3630 ca         1 L9S      -0.067400
      9 C11         -3.7350     1.2420     0.2120 c          1 L9S       0.793100
     10 C8          -0.2990     3.1910     2.1500 ca         1 L9S      -0.116000
     11 C10         -1.3860     1.9320     0.4200 ca         1 L9S       0.075600
     12 O1           5.0880     4.6090     0.0240 oh         1 L9S      -0.603800
     13 C1           3.6850     4.5620    -0.1170 c3         1 L9S       0.141400
     14 N1           3.4230     2.1250     0.3580 n3         1 L9S      -0.724600
     15 C4           4.9260     0.3930     1.2160 c6         1 L9S       0.203800
     16 C6           1.0160     1.7900     0.7070 ca         1 L9S      -0.069300
     17 C9          -1.4600     2.8330     1.4800 ca         1 L9S      -0.124000
     18 N2          -2.5110     1.5520    -0.3230 ns         1 L9S      -0.497100
     19 N3          -4.6360     0.8100    -0.7140 ns         1 L9S      -0.502100
     20 C16         -7.7390    -1.1740    -0.1990 ca         1 L9S      -0.230000
     21 C17         -6.3680    -0.9250    -0.4150 ca         1 L9S       0.232600
     22 C18         -4.0910    -1.9790    -0.3610 c5         1 L9S       0.221800
     23 C19         -3.7640    -3.4650    -0.2490 c5         1 L9S      -0.095900
     24 C20         -4.7690    -4.1140    -1.1910 c5         1 L9S      -0.095900
     25 C21         -6.0250    -3.3000    -0.9270 c5         1 L9S       0.221800
     26 O2          -3.9960     1.3260     1.3990 o          1 L9S      -0.603100
     27 C22         -0.1450     1.4200     0.0430 ca         1 L9S      -0.174000
     28 C23          2.5920     0.0150     1.3270 c6         1 L9S       0.212800
     29 N5           3.8810    -0.5970     1.0800 nh         1 L9S      -0.754300
     30 C24          3.9860    -1.7180     0.3250 ca         1 L9S       0.760200
     31 N6           2.8870    -2.4750     0.2300 nb         1 L9S      -0.829000
     32 C25          2.9220    -3.6190    -0.4400 ca         1 L9S       0.702900
     33 N7           3.9450    -4.1540    -1.0710 nb         1 L9S      -0.758000
     34 C26          5.0370    -3.3910    -1.0010 ca         1 L9S       0.467800
     35 C27          5.1650    -2.1550    -0.3350 ca         1 L9S      -0.373400
     36 C28          6.5050    -1.7060    -0.5890 cc         1 L9S      -0.156200
     37 C29          7.1030    -2.6590    -1.3550 cd         1 L9S      -0.131100
     38 N8           6.2170    -3.6740    -1.5970 na         1 L9S      -0.267100
     39 H1           4.8600     1.0820    -0.8160 h1         1 L9S       0.052700
     40 H2           5.5020     2.2540     0.3340 h1         1 L9S       0.052700
     41 H3           2.2310     0.6980    -0.6700 h1         1 L9S       0.035700
     42 H4           1.8340     2.9780     2.2960 ha         1 L9S       0.147000
     43 H5          -8.8760     1.9700     0.4520 ha         1 L9S       0.153000
     44 H6          -9.6600    -0.3940     0.2810 ha         1 L9S       0.132000
     45 H7          -0.3610     3.8930     2.9720 ha         1 L9S       0.134000
     46 H8           5.3280     5.4810     0.3490 ho         1 L9S       0.403000
     47 H9           3.1770     4.7750     0.8330 h1         1 L9S       0.023700
     48 H10          3.3360     5.3080    -0.8430 h1         1 L9S       0.023700
     49 H14          5.9100    -0.0520     1.1380 h1         1 L9S       0.066200
     50 H15          4.8570     0.8090     2.2250 h1         1 L9S       0.066200
     51 H16         -2.4050     3.2680     1.7710 ha         1 L9S       0.158000
     52 H17         -2.3270     1.2600    -1.2710 hn         1 L9S       0.309500
     53 H18         -4.3860     0.7850    -1.6910 hn         1 L9S       0.320500
     54 H19         -8.1190    -2.1840    -0.2500 ha         1 L9S       0.135000
     55 H20         -3.4850    -1.5170    -1.1430 h1         1 L9S       0.046950
     56 H21         -3.8910    -1.4540     0.5750 h1         1 L9S       0.046950
     57 H22         -2.7270    -3.6720    -0.5080 hc         1 L9S       0.056200
     58 H23         -3.9300    -3.8150     0.7720 hc         1 L9S       0.056200
     59 H24         -4.4540    -4.0020    -2.2310 hc         1 L9S       0.056200
     60 H25         -4.9210    -5.1750    -0.9980 hc         1 L9S       0.056200
     61 H26         -6.5500    -3.6930    -0.0460 h1         1 L9S       0.046950
     62 H27         -6.7270    -3.3190    -1.7630 h1         1 L9S       0.046950
     63 H28         -0.0890     0.7170    -0.7810 ha         1 L9S       0.127000
     64 H29          2.5900     0.4160     2.3450 h1         1 L9S       0.080700
     65 H30          1.8010    -0.7240     1.2520 h1         1 L9S       0.080700
     66 H31          1.9910    -4.1770    -0.4650 h5         1 L9S       0.041100
     67 H32          6.9920    -0.8000    -0.2730 ha         1 L9S       0.154000
     68 H33          8.1020    -2.6930    -1.7550 h4         1 L9S       0.167000
     69 H34          6.4020    -4.4970    -2.1470 hn         1 L9S       0.310700
     70 C2           3.2310     3.2020    -0.6060 c3         1 L9S       0.168800
     71 F1          -6.4260     2.6770    -0.0120 f          1 L9S      -0.135900
     72 H11          2.1660     3.3060    -0.8200 h1         1 L9S       0.043200
     73 H12          3.7090     2.9660    -1.5690 h1         1 L9S       0.043200
@<TRIPOS>BOND
     1     1    14 1   
     2     1    15 1   
     3     1    39 1   
     4     1    40 1   
     5     2    21 1   
     6     2    22 1   
     7     2    25 1   
     8     3    14 1   
     9     3    16 1   
    10     3    28 1   
    11     3    41 1   
    12     4    10 ar  
    13     4    16 ar  
    14     4    42 1   
    15     5     6 ar  
    16     5     7 ar  
    17     5    43 1   
    18     6    20 ar  
    19     6    44 1   
    20     7     8 ar  
    21     7    71 1   
    22     8    19 1   
    23     8    21 ar  
    24     9    18 1   
    25     9    19 1   
    26     9    26 2   
    27    10    17 ar  
    28    10    45 1   
    29    11    17 ar  
    30    11    18 1   
    31    11    27 ar  
    32    12    13 1   
    33    12    46 1   
    34    13    47 1   
    35    13    48 1   
    36    13    70 1   
    37    14    70 1   
    38    15    29 1   
    39    15    49 1   
    40    15    50 1   
    41    16    27 ar  
    42    17    51 1   
    43    18    52 1   
    44    19    53 1   
    45    20    21 ar  
    46    20    54 1   
    47    22    23 1   
    48    22    55 1   
    49    22    56 1   
    50    23    24 1   
    51    23    57 1   
    52    23    58 1   
    53    24    25 1   
    54    24    59 1   
    55    24    60 1   
    56    25    61 1   
    57    25    62 1   
    58    27    63 1   
    59    28    29 1   
    60    28    64 1   
    61    28    65 1   
    62    29    30 1   
    63    30    31 ar  
    64    30    35 ar  
    65    31    32 ar  
    66    32    33 ar  
    67    32    66 1   
    68    33    34 ar  
    69    34    35 ar  
    70    34    38 1   
    71    35    36 1   
    72    36    37 2   
    73    36    67 1   
    74    37    38 1   
    75    37    68 1   
    76    38    69 1   
    77    70    72 1   
    78    70    73 1   
@<TRIPOS>SUBSTRUCTURE
     1 L9S         1 TEMP              0 ****  ****    0 ROOT
