@<TRIPOS>MOLECULE
L9S
   73    78     1     0     0
SMALL
No Charge or Current Charge


@<TRIPOS>ATOM
      1 C3           4.5530     1.8270    -0.5330 c6         1 L9S       0.139800
      2 N4          -6.0390    -1.6580    -1.0480 nh         1 L9S      -0.831400
      3 C5           2.4020     1.0670     0.3810 c6         1 L9S       0.199800
      4 C7           1.1370     2.0530     2.3750 ca         1 L9S      -0.111000
      5 C14         -8.3760     1.6380     0.1940 ca         1 L9S      -0.205000
      6 C15         -8.9930     0.4870    -0.3120 ca         1 L9S      -0.039000
      7 C13         -6.9790     1.7030     0.2970 ca         1 L9S       0.226000
      8 C12         -6.1730     0.6090    -0.0940 ca         1 L9S      -0.160000
      9 C11         -3.8960     1.1490     0.9470 c          1 L9S       0.659100
     10 C8          -0.0550     2.3680     3.0440 ca         1 L9S      -0.098000
     11 C10         -1.3530     1.4080     1.2100 ca         1 L9S      -0.017000
     12 O1           4.2360     4.6670    -1.9130 oh         1 L9S      -0.666000
     13 C1           3.3640     4.7010    -0.7660 c3         1 L9S       0.164600
     14 N1           3.2860     2.2610     0.1430 n3         1 L9S      -0.724600
     15 C4           5.3050     0.6940     0.2310 c6         1 L9S       0.203800
     16 C6           1.0980     1.4150     1.1200 ca         1 L9S      -0.069300
     17 C9          -1.2960     2.0490     2.4680 ca         1 L9S      -0.106000
     18 N2          -2.5670     1.0560     0.5590 ns         1 L9S      -0.171000
     19 N3          -4.7470     0.6670    -0.0350 ns         1 L9S      -0.176000
     20 C16         -8.2010    -0.5940    -0.7250 ca         1 L9S      -0.212000
     21 C17         -6.7990    -0.5440    -0.6250 ca         1 L9S       0.371000
     22 C18         -5.1530    -2.4270    -0.1330 c5         1 L9S       0.221800
     23 C19         -5.1370    -3.8200    -0.8110 c5         1 L9S      -0.095900
     24 C20         -5.1550    -3.4270    -2.3100 c5         1 L9S      -0.095900
     25 C21         -6.2900    -2.3740    -2.3250 c5         1 L9S       0.221800
     26 O2          -4.2800     1.5710     2.0320 o          1 L9S      -0.603100
     27 C22         -0.1500     1.1000     0.5470 ca         1 L9S      -0.156000
     28 C23          3.1410    -0.0890     1.1420 c6         1 L9S       0.212800
     29 N5           4.4300    -0.4870     0.4900 nh         1 L9S      -0.754300
     30 C24          5.0230    -1.7330     0.7820 ca         1 L9S       0.431900
     31 N6           4.7400    -2.3030     1.9730 nb         1 L9S      -0.303000
     32 C25          5.3290    -3.4940     2.2320 ca         1 L9S       0.176900
     33 N7           6.1670    -4.1790     1.4180 nb         1 L9S      -0.232000
     34 C26          6.4330    -3.6060     0.2300 ca         1 L9S       0.139500
     35 C27          5.8800    -2.3980    -0.1140 ca         1 L9S      -0.242800
     36 C28          6.3110    -2.0710    -1.4430 cc         1 L9S      -0.206200
     37 C29          7.1390    -3.1000    -1.8580 cd         1 L9S      -0.181100
     38 N8           7.2240    -4.0570    -0.8160 na         1 L9S      -0.317400
     39 H1           4.3360     1.4720    -1.5520 h1         1 L9S       0.052700
     40 H2           5.2500     2.6710    -0.6300 h1         1 L9S       0.052700
     41 H3           2.1190     0.6570    -0.6010 h1         1 L9S       0.035700
     42 H4           2.0930     2.3110     2.8260 ha         1 L9S       0.129000
     43 H5          -8.9790     2.4910     0.4950 ha         1 L9S       0.135000
     44 H6         -10.0770     0.4350    -0.3930 ha         1 L9S       0.114000
     45 H7          -0.0190     2.8640     4.0120 ha         1 L9S       0.116000
     46 H8           4.6860     5.5400    -1.9530 ho         1 L9S       0.442000
     47 H9           3.9310     4.9180     0.1490 h1         1 L9S       0.023700
     48 H10          2.6320     5.5090    -0.8950 h1         1 L9S       0.023700
     49 H14          6.1930     0.4100    -0.3510 h1         1 L9S       0.066200
     50 H15          5.6690     1.1010     1.1870 h1         1 L9S       0.066200
     51 H16         -2.1970     2.3120     3.0110 ha         1 L9S       0.140000
     52 H17         -2.4320     0.6650    -0.3640 hn         1 L9S       0.143000
     53 H18         -4.2850     0.2570    -0.8370 hn         1 L9S       0.154000
     54 H19         -8.6850    -1.4840    -1.1160 ha         1 L9S       0.117000
     55 H20         -4.1440    -1.9930    -0.0980 h1         1 L9S       0.046950
     56 H21         -5.5480    -2.4790     0.8910 h1         1 L9S       0.046950
     57 H22         -4.2560    -4.4090    -0.5330 hc         1 L9S       0.056200
     58 H23         -6.0250    -4.4040    -0.5390 hc         1 L9S       0.056200
     59 H24         -4.1990    -2.9890    -2.6220 hc         1 L9S       0.056200
     60 H25         -5.3630    -4.2750    -2.9720 hc         1 L9S       0.056200
     61 H26         -7.2750    -2.8600    -2.3280 h1         1 L9S       0.046950
     62 H27         -6.2200    -1.7130    -3.2000 h1         1 L9S       0.046950
     63 H28         -0.1840     0.6090    -0.4240 ha         1 L9S       0.109000
     64 H29          3.3300     0.2330     2.1770 h1         1 L9S       0.080700
     65 H30          2.4580    -0.9510     1.1920 h1         1 L9S       0.080700
     66 H31          5.1040    -3.9510     3.1940 h5         1 L9S       0.041100
     67 H32          6.0340    -1.2010    -2.0370 ha         1 L9S       0.204000
     68 H33          7.6610    -3.2260    -2.8060 h4         1 L9S       0.217000
     69 H34          7.7550    -4.9230    -0.8260 hn         1 L9S       0.361000
     70 C2           2.5800     3.3660    -0.5840 c3         1 L9S       0.168800
     71 F1          -6.4230     2.8610     0.7160 f          1 L9S      -0.171000
     72 H11          1.6680     3.6300    -0.0330 h1         1 L9S       0.043200
     73 H12          2.2500     3.0170    -1.5720 h1         1 L9S       0.043200
@<TRIPOS>BOND
     1     1    14 1   
     2     1    15 1   
     3     1    39 1   
     4     1    40 1   
     5     2    21 1   
     6     2    22 1   
     7     2    25 1   
     8     3    14 1   
     9     3    16 1   
    10     3    28 1   
    11     3    41 1   
    12     4    10 ar  
    13     4    16 ar  
    14     4    42 1   
    15     5     6 ar  
    16     5     7 ar  
    17     5    43 1   
    18     6    20 ar  
    19     6    44 1   
    20     7     8 ar  
    21     7    71 1   
    22     8    19 1   
    23     8    21 ar  
    24     9    18 1   
    25     9    19 1   
    26     9    26 2   
    27    10    17 ar  
    28    10    45 1   
    29    11    17 ar  
    30    11    18 1   
    31    11    27 ar  
    32    12    13 1   
    33    12    46 1   
    34    13    47 1   
    35    13    48 1   
    36    13    70 1   
    37    14    70 1   
    38    15    29 1   
    39    15    49 1   
    40    15    50 1   
    41    16    27 ar  
    42    17    51 1   
    43    18    52 1   
    44    19    53 1   
    45    20    21 ar  
    46    20    54 1   
    47    22    23 1   
    48    22    55 1   
    49    22    56 1   
    50    23    24 1   
    51    23    57 1   
    52    23    58 1   
    53    24    25 1   
    54    24    59 1   
    55    24    60 1   
    56    25    61 1   
    57    25    62 1   
    58    27    63 1   
    59    28    29 1   
    60    28    64 1   
    61    28    65 1   
    62    29    30 1   
    63    30    31 ar  
    64    30    35 ar  
    65    31    32 ar  
    66    32    33 ar  
    67    32    66 1   
    68    33    34 ar  
    69    34    35 ar  
    70    34    38 1   
    71    35    36 1   
    72    36    37 2   
    73    36    67 1   
    74    37    38 1   
    75    37    68 1   
    76    38    69 1   
    77    70    72 1   
    78    70    73 1   
@<TRIPOS>SUBSTRUCTURE
     1 L9S         1 TEMP              0 ****  ****    0 ROOT
