@<TRIPOS>MOLECULE
L9T
   47    50     1     0     0
SMALL
No Charge or Current Charge


@<TRIPOS>ATOM
      1 C1          -2.4380     1.8680    -0.2410 c5         1 L9T       0.169500
      2 C2          -0.4010     1.0510     0.5530 c5         1 L9T       0.628700
      3 C3           1.8630     0.2630     0.9590 c3         1 L9T       0.228100
      4 C7           5.0990    -2.0480    -0.8530 ca         1 L9T      -0.090000
      5 C8           5.2200    -0.6750    -0.6080 ca         1 L9T       0.046100
      6 C9           5.8660     1.4350    -0.5170 c5         1 L9T       0.368600
      7 C10          4.2060     0.0500    -0.0430 ca         1 L9T       0.078100
      8 C11         -2.9060     0.3920     0.0390 c5         1 L9T       0.091300
      9 C12         -4.1750     0.3690     0.9980 c5         1 L9T       0.164500
     10 C13         -5.4080     0.9790     0.2630 c5         1 L9T      -0.080400
     11 C14         -5.8050    -0.1760    -0.6980 c5         1 L9T       0.141800
     12 N2          -5.4930    -1.4130     0.0820 n3         1 L9T      -0.490400
     13 N3          -4.6520    -1.0240     1.1780 n7         1 L9T      -0.627200
     14 S           -1.4170    -0.4240     0.8390 ss         1 L9T      -0.673000
     15 N           -1.0030     1.6870    -0.5810 n7         1 L9T      -0.831400
     16 C           -2.6140     2.9240     0.8920 c3         1 L9T      -0.089100
     17 N1           0.7620     0.4600     0.0020 n7         1 L9T      -0.848400
     18 C4           2.9850    -0.5440     0.3210 ca         1 L9T      -0.084300
     19 C5           2.8360    -1.9310     0.0810 ca         1 L9T      -0.103000
     20 O2           6.3190     0.0790    -0.8640 os         1 L9T      -0.345100
     21 O1           4.5480     1.3550     0.1300 os         1 L9T      -0.328100
     22 C6           3.8860    -2.6780    -0.5030 ca         1 L9T      -0.115000
     23 H1          -2.9750     2.2580    -1.1180 h1         1 L9T       0.069700
     24 H2          -0.2500     1.7010     1.4330 h3         1 L9T       0.103700
     25 H3           2.2520     1.2320     1.3020 h1         1 L9T       0.054200
     26 H4           1.5110    -0.2770     1.8500 h1         1 L9T       0.054200
     27 H6           6.5860     1.9050     0.1630 h2         1 L9T       0.064200
     28 H7          -3.1030    -0.1250    -0.9090 h1         1 L9T       0.078700
     29 H8          -3.9660     0.8500     1.9640 h1         1 L9T       0.056700
     30 H9          -6.2170     1.1870     0.9730 hc         1 L9T       0.048700
     31 H10         -5.2070     1.9130    -0.2700 hc         1 L9T       0.048700
     32 H11         -6.8620    -0.1280    -0.9940 h1         1 L9T       0.045700
     33 H12         -5.2050    -0.1280    -1.6180 h1         1 L9T       0.045700
     34 H13         -4.1540    -2.4250    -1.2360 h1         1 L9T       0.039033
     35 H14         -4.9980    -3.4790    -0.0770 h1         1 L9T       0.039033
     36 H15         -5.8740    -2.8170    -1.4750 h1         1 L9T       0.039033
     37 H16         -5.1260    -1.1000     2.0920 hn         1 L9T       0.422000
     38 H17         -0.9360     0.9850    -1.3150 hn         1 L9T       0.428000
     39 H19         -2.2470     2.5680     1.8610 hc         1 L9T       0.047367
     40 H20         -2.0750     3.8470     0.6480 hc         1 L9T       0.047367
     41 H21         -3.6670     3.1980     1.0230 hc         1 L9T       0.047367
     42 H22          0.4350    -0.4710    -0.2530 hn         1 L9T       0.432000
     43 H24          1.9080    -2.4320     0.3510 ha         1 L9T       0.120000
     44 H25          3.7590    -3.7440    -0.6800 ha         1 L9T       0.121000
     45 H26          5.7750     2.0250    -1.4360 h2         1 L9T       0.064200
     46 C15         -5.1080    -2.5960    -0.7200 c3         1 L9T       0.137100
     47 H5           5.9170    -2.6100    -1.2980 ha         1 L9T       0.134000
@<TRIPOS>BOND
     1     1     8 1   
     2     1    15 1   
     3     1    16 1   
     4     1    23 1   
     5     2    14 1   
     6     2    15 1   
     7     2    17 1   
     8     2    24 1   
     9     3    17 1   
    10     3    18 1   
    11     3    25 1   
    12     3    26 1   
    13     4     5 ar  
    14     4    22 ar  
    15     4    47 1   
    16     5     7 ar  
    17     5    20 1   
    18     6    20 1   
    19     6    21 1   
    20     6    27 1   
    21     6    45 1   
    22     7    18 ar  
    23     7    21 1   
    24     8     9 1   
    25     8    14 1   
    26     8    28 1   
    27     9    10 1   
    28     9    13 1   
    29     9    29 1   
    30    10    11 1   
    31    10    30 1   
    32    10    31 1   
    33    11    12 1   
    34    11    32 1   
    35    11    33 1   
    36    12    13 1   
    37    12    46 1   
    38    13    37 1   
    39    15    38 1   
    40    16    39 1   
    41    16    40 1   
    42    16    41 1   
    43    17    42 1   
    44    18    19 ar  
    45    19    22 ar  
    46    19    43 1   
    47    22    44 1   
    48    34    46 1   
    49    35    46 1   
    50    36    46 1   
@<TRIPOS>SUBSTRUCTURE
     1 L9T         1 TEMP              0 ****  ****    0 ROOT
