@<TRIPOS>MOLECULE
L9T
   47    50     1     0     0
SMALL
abcg2


@<TRIPOS>ATOM
      1 C1          -2.1520     1.8130    -0.3510 c5         1 L9T       0.169500
      2 C2          -0.1180     0.8000     0.3190 c5         1 L9T       0.628700
      3 C3           1.8490    -0.5040     0.7990 c3         1 L9T       0.228100
      4 C7           5.7790    -1.5100    -0.7840 ca         1 L9T      -0.090000
      5 C8           5.4120    -0.2170    -0.4970 ca         1 L9T       0.046100
      6 C9           5.3840     1.9480    -0.0180 c5         1 L9T       0.368600
      7 C10          4.1610     0.0980     0.0080 ca         1 L9T       0.078100
      8 C11         -2.7160     0.3760    -0.2500 c5         1 L9T       0.091300
      9 C12         -4.0860     0.2590     0.3910 c5         1 L9T       0.164500
     10 C13         -5.1980     0.9840    -0.3940 c5         1 L9T      -0.080400
     11 C14         -6.3170    -0.0550    -0.4730 c5         1 L9T       0.141800
     12 N2          -5.9660    -1.0230     0.5530 n3         1 L9T      -0.490400
     13 N3          -4.5350    -1.1340     0.3830 n7         1 L9T      -0.627200
     14 S           -1.4520    -0.5370     0.6940 ss         1 L9T      -0.673000
     15 N           -0.7260     1.7060    -0.6040 n7         1 L9T      -0.831400
     16 C           -2.4160     2.6650     0.8830 c3         1 L9T      -0.089100
     17 N1           1.1020     0.2790    -0.1690 n7         1 L9T      -0.848400
     18 C4           3.2040    -0.8590     0.2660 ca         1 L9T      -0.084300
     19 C5           3.5720    -2.1800    -0.0270 ca         1 L9T      -0.103000
     20 O2           6.1300     0.9220    -0.6580 os         1 L9T      -0.345100
     21 O1           4.0720     1.4400     0.1800 os         1 L9T      -0.328100
     22 C6           4.8210    -2.4990    -0.5350 ca         1 L9T      -0.115000
     23 H1          -2.6010     2.3080    -1.2160 h1         1 L9T       0.069700
     24 H2           0.0690     1.2830     1.2790 h3         1 L9T       0.103700
     25 H3           1.9480     0.0930     1.7100 h1         1 L9T       0.054200
     26 H4           1.3270    -1.4270     1.0860 h1         1 L9T       0.054200
     27 H6           5.8390     2.1900     0.9500 h2         1 L9T       0.064200
     28 H7          -2.7800    -0.0480    -1.2570 h1         1 L9T       0.078700
     29 H8          -4.0430     0.6530     1.4130 h1         1 L9T       0.056700
     30 H9          -5.5090     1.8880     0.1290 hc         1 L9T       0.048700
     31 H10         -4.8700     1.2810    -1.3910 hc         1 L9T       0.048700
     32 H11         -7.3080     0.3560    -0.2790 h1         1 L9T       0.045700
     33 H12         -6.3340    -0.5160    -1.4720 h1         1 L9T       0.045700
     34 H13         -6.3270    -2.7460    -0.6420 h1         1 L9T       0.039033
     35 H14         -6.2810    -3.0130     1.1130 h1         1 L9T       0.039033
     36 H15         -7.6650    -2.2000     0.3920 h1         1 L9T       0.039033
     37 H16         -4.1860    -1.5920     1.2200 hn         1 L9T       0.422000
     38 H17         -0.5730     1.3780    -1.5520 hn         1 L9T       0.428000
     39 H19         -2.0800     2.1810     1.8020 hc         1 L9T       0.047367
     40 H20         -1.8950     3.6180     0.7890 hc         1 L9T       0.047367
     41 H21         -3.4780     2.8790     0.9940 hc         1 L9T       0.047367
     42 H22          0.9500    -0.2680    -1.0090 hn         1 L9T       0.432000
     43 H24          2.8540    -2.9700     0.1560 ha         1 L9T       0.120000
     44 H25          5.0660    -3.5320    -0.7410 ha         1 L9T       0.121000
     45 H26          5.3470     2.8310    -0.6540 h2         1 L9T       0.064200
     46 C15         -6.5820    -2.3100     0.3340 c3         1 L9T       0.137100
     47 H5           6.7550    -1.7530    -1.1820 ha         1 L9T       0.134000
@<TRIPOS>BOND
     1     1     8 1   
     2     1    15 1   
     3     1    16 1   
     4     1    23 1   
     5     2    14 1   
     6     2    15 1   
     7     2    17 1   
     8     2    24 1   
     9     3    17 1   
    10     3    18 1   
    11     3    25 1   
    12     3    26 1   
    13     4     5 ar  
    14     4    22 ar  
    15     4    47 1   
    16     5     7 ar  
    17     5    20 1   
    18     6    20 1   
    19     6    21 1   
    20     6    27 1   
    21     6    45 1   
    22     7    18 ar  
    23     7    21 1   
    24     8     9 1   
    25     8    14 1   
    26     8    28 1   
    27     9    10 1   
    28     9    13 1   
    29     9    29 1   
    30    10    11 1   
    31    10    30 1   
    32    10    31 1   
    33    11    12 1   
    34    11    32 1   
    35    11    33 1   
    36    12    13 1   
    37    12    46 1   
    38    13    37 1   
    39    15    38 1   
    40    16    39 1   
    41    16    40 1   
    42    16    41 1   
    43    17    42 1   
    44    18    19 ar  
    45    19    22 ar  
    46    19    43 1   
    47    22    44 1   
    48    34    46 1   
    49    35    46 1   
    50    36    46 1   
@<TRIPOS>SUBSTRUCTURE
     1 L9T         1 TEMP              0 ****  ****    0 ROOT
