@<TRIPOS>MOLECULE
L9U
   19    19     1     0     0
SMALL
bcc


@<TRIPOS>ATOM
      1 C7         -14.6520   -34.2750    10.5430 cc         1 L9U      -0.124100
      2 C6         -14.2730   -34.9280     9.4110 cd         1 L9U      -0.157000
      3 S1         -15.6520   -35.2530    11.5330 ss         1 L9U      -0.020800
      4 C4         -15.5710   -36.5710    10.4230 cc         1 L9U      -0.116400
      5 C3         -16.2770   -37.8660    10.6770 c3         1 L9U       0.178300
      6 C2         -18.4940   -37.3090    11.5290 c          1 L9U       0.669100
      7 C1         -19.9680   -37.2230    11.1910 c3         1 L9U      -0.098000
      8 C5         -14.8030   -36.2470     9.3450 cd         1 L9U      -0.143000
      9 N1         -17.7160   -37.7770    10.5440 ns         1 L9U      -0.565900
     10 O1         -18.0690   -36.9720    12.6210 o          1 L9U      -0.580100
     11 H1         -14.3990   -33.2700    10.8450 h4         1 L9U       0.167000
     12 H2         -13.6420   -34.4910     8.6510 ha         1 L9U       0.150000
     13 H3         -15.9240   -38.5990     9.9530 h1         1 L9U       0.065200
     14 H4         -16.0370   -38.2570    11.6660 h1         1 L9U       0.065200
     15 H5         -20.2570   -37.8280    10.3340 h1         1 L9U       0.091700
     16 H6         -20.5670   -37.5070    12.0550 h1         1 L9U       0.091700
     17 H8         -14.6200   -36.9340     8.5300 ha         1 L9U       0.145000
     18 H9         -18.1130   -37.9550     9.6350 hn         1 L9U       0.319500
     19 BR1        -20.3950   -35.3610    10.7680 br         1 L9U      -0.138400
@<TRIPOS>BOND
     1     1     2 2   
     2     1     3 1   
     3     1    11 1   
     4     2     8 1   
     5     2    12 1   
     6     3     4 1   
     7     4     5 1   
     8     4     8 2   
     9     5     9 1   
    10     5    13 1   
    11     5    14 1   
    12     6     7 1   
    13     6     9 1   
    14     6    10 2   
    15     7    15 1   
    16     7    16 1   
    17     7    19 1   
    18     8    17 1   
    19     9    18 1   
@<TRIPOS>SUBSTRUCTURE
     1 L9U         1 TEMP              0 ****  ****    0 ROOT
