@<TRIPOS>MOLECULE
L9U
   19    19     1     0     0
SMALL
No Charge or Current Charge


@<TRIPOS>ATOM
      1 C7         -14.3680   -34.3190    10.6000 cc         1 L9U      -0.251000
      2 C6         -14.4350   -34.8430     9.3340 cd         1 L9U      -0.139000
      3 S1         -15.1080   -35.4020    11.7750 ss         1 L9U       0.269000
      4 C4         -15.4970   -36.5620    10.5060 cc         1 L9U      -0.261300
      5 C3         -16.2090   -37.8450    10.8230 c3         1 L9U       0.178300
      6 C2         -18.5610   -37.3960    11.5860 c          1 L9U       0.602100
      7 C1         -20.0060   -37.2630    11.0990 c3         1 L9U      -0.015400
      8 C5         -15.0740   -36.1100     9.2800 cd         1 L9U      -0.125000
      9 N1         -17.6460   -37.7160    10.6080 ns         1 L9U      -0.498900
     10 O1         -18.2390   -37.2220    12.7540 o          1 L9U      -0.580100
     11 H1         -13.9420   -33.3810    10.9320 h4         1 L9U       0.149000
     12 H2         -14.0390   -34.3380     8.4570 ha         1 L9U       0.132000
     13 H3         -15.8270   -38.6440    10.1730 h1         1 L9U       0.065200
     14 H4         -16.0100   -38.1390    11.8620 h1         1 L9U       0.065200
     15 H5         -20.2630   -38.1290    10.4780 h1         1 L9U       0.091700
     16 H6         -20.6770   -37.2110    11.9640 h1         1 L9U       0.091700
     17 H8         -15.2140   -36.6670     8.3580 ha         1 L9U       0.127000
     18 H9         -18.0010   -37.8150     9.6640 hn         1 L9U       0.319500
     19 Br1        -20.3140   -35.6210    10.0000 br         1 L9U      -0.221000
@<TRIPOS>BOND
     1     1     2 2   
     2     1     3 1   
     3     1    11 1   
     4     2     8 1   
     5     2    12 1   
     6     3     4 1   
     7     4     5 1   
     8     4     8 2   
     9     5     9 1   
    10     5    13 1   
    11     5    14 1   
    12     6     7 1   
    13     6     9 1   
    14     6    10 2   
    15     7    15 1   
    16     7    16 1   
    17     7    19 1   
    18     8    17 1   
    19     9    18 1   
@<TRIPOS>SUBSTRUCTURE
     1 L9U         1 TEMP              0 ****  ****    0 ROOT
