@<TRIPOS>MOLECULE
L9W
   49    53     1     0     0
SMALL
No Charge or Current Charge


@<TRIPOS>ATOM
      1 C1          33.6710    30.5190    23.1660 ca         1 L9W      -0.277500
      2 C2          32.6470    31.4820    23.2280 ca         1 L9W      -0.016000
      3 C3          32.8090    32.6380    24.0110 ca         1 L9W      -0.116000
      4 C4          33.9970    32.8650    24.7510 ca         1 L9W       0.046000
      5 C5          35.0120    31.8840    24.6760 ca         1 L9W      -0.116000
      6 C6          34.8570    30.7280    23.8930 ca         1 L9W      -0.016000
      7 C7          34.1720    34.0790    25.5830 cc         1 L9W      -0.131000
      8 C8          33.4680    35.2160    25.1890 cd         1 L9W       0.411900
      9 C11         35.9710    35.3090    28.3770 cc         1 L9W       0.325700
     10 C12         33.4300    38.7300    27.5820 c3         1 L9W       0.291100
     11 C15         34.5110    41.7530    29.7170 ca         1 L9W      -0.073000
     12 C16         33.9520    41.4330    30.9700 ca         1 L9W      -0.128000
     13 C17         33.2210    40.2460    31.0910 ca         1 L9W       0.131100
     14 C18         33.0510    39.3890    30.0270 ca         1 L9W      -0.146300
     15 C19         32.2700    38.1820    30.4480 c5         1 L9W      -0.054100
     16 O1          34.3730    27.9930    22.6510 o          1 L9W      -0.530500
     17 S           33.4700    29.0390    22.1520 sy         1 L9W       1.083500
     18 O           32.0360    28.7820    21.9640 o          1 L9W      -0.530500
     19 C           34.1100    29.5490    20.5580 c3         1 L9W      -0.342100
     20 C10         35.0790    34.2130    26.6720 cc         1 L9W      -0.038000
     21 N2          35.8480    33.3670    27.3320 nd         1 L9W      -0.104000
     22 N3          36.4130    34.0570    28.4020 nd         1 L9W      -0.338700
     23 N1          35.2160    35.4140    27.2500 na         1 L9W      -0.247300
     24 C9          34.3440    36.4520    26.9890 cc         1 L9W       0.826400
     25 N           33.5320    36.4070    25.9370 nd         1 L9W      -0.779000
     26 N4          34.3650    37.6050    27.7080 nu         1 L9W      -0.937100
     27 C13         33.6010    39.6810    28.7620 ca         1 L9W      -0.061300
     28 C20         31.7880    38.6950    31.8550 c5         1 L9W       0.149600
     29 O2          32.6470    39.8160    32.2550 os         1 L9W      -0.339100
     30 C14         34.3350    40.8810    28.6200 ca         1 L9W      -0.140000
     31 H1          31.7180    31.3390    22.6770 ha         1 L9W       0.137000
     32 H2          31.9770    33.3330    24.0560 ha         1 L9W       0.129500
     33 H3          35.9540    32.0190    25.1970 ha         1 L9W       0.129500
     34 H4          35.6680    30.0010    23.8520 ha         1 L9W       0.137000
     35 H5          32.8200    35.2560    24.3230 h4         1 L9W       0.031100
     36 H6          36.1740    36.1040    29.0830 h5         1 L9W       0.072800
     37 H7          33.6120    39.2720    26.6430 h1         1 L9W       0.068700
     38 H8          32.3920    38.3700    27.5560 h1         1 L9W       0.068700
     39 H10         34.0840    42.0920    31.8240 ha         1 L9W       0.134000
     40 H11         32.9000    37.2890    30.5330 hc         1 L9W       0.065700
     41 H12         33.5160    30.3990    20.2080 h1         1 L9W       0.101700
     42 H13         35.1580    29.8370    20.6870 h1         1 L9W       0.101700
     43 H14         34.0220    28.7030    19.8680 h1         1 L9W       0.101700
     44 H15         35.0820    37.6670    28.4200 hn         1 L9W       0.505000
     45 H16         30.7570    39.0700    31.7880 h1         1 L9W       0.060200
     46 H17         34.7770    41.1370    27.6600 ha         1 L9W       0.107000
     47 H18         31.4290    37.9470    29.7850 hc         1 L9W       0.065700
     48 H19         31.8130    37.9120    32.6240 h1         1 L9W       0.060200
     49 H9          35.0810    42.6720    29.5950 ha         1 L9W       0.119000
@<TRIPOS>BOND
     1     1     2 ar  
     2     1     6 ar  
     3     1    17 1   
     4     2     3 ar  
     5     2    31 1   
     6     3     4 ar  
     7     3    32 1   
     8     4     5 ar  
     9     4     7 1   
    10     5     6 ar  
    11     5    33 1   
    12     6    34 1   
    13     7     8 2   
    14     7    20 1   
    15     8    25 1   
    16     8    35 1   
    17     9    22 2   
    18     9    23 1   
    19     9    36 1   
    20    10    26 1   
    21    10    27 1   
    22    10    37 1   
    23    10    38 1   
    24    11    12 ar  
    25    11    30 ar  
    26    11    49 1   
    27    12    13 ar  
    28    12    39 1   
    29    13    14 ar  
    30    13    29 1   
    31    14    15 1   
    32    14    27 ar  
    33    15    28 1   
    34    15    40 1   
    35    15    47 1   
    36    16    17 2   
    37    17    18 2   
    38    17    19 1   
    39    19    41 1   
    40    19    42 1   
    41    19    43 1   
    42    20    21 2   
    43    20    23 1   
    44    21    22 1   
    45    23    24 1   
    46    24    25 2   
    47    24    26 1   
    48    26    44 1   
    49    27    30 ar  
    50    28    29 1   
    51    28    45 1   
    52    28    48 1   
    53    30    46 1   
@<TRIPOS>SUBSTRUCTURE
     1 L9W         1 TEMP              0 ****  ****    0 ROOT
