@<TRIPOS>MOLECULE
L9W
   49    53     1     0     0
SMALL
abcg2


@<TRIPOS>ATOM
      1 C1          34.0860    30.6630    24.3870 ca         1 L9W      -0.277500
      2 C2          33.2470    31.2230    25.3450 ca         1 L9W      -0.016000
      3 C3          33.5200    32.4930    25.8270 ca         1 L9W      -0.116000
      4 C4          34.6180    33.2250    25.3540 ca         1 L9W       0.046000
      5 C5          35.4570    32.6320    24.3990 ca         1 L9W      -0.116000
      6 C6          35.1940    31.3610    23.9140 ca         1 L9W      -0.016000
      7 C7          34.8590    34.5940    25.8310 cc         1 L9W      -0.131000
      8 C8          33.8350    35.4550    26.1440 cd         1 L9W       0.411900
      9 C11         37.6430    36.6880    26.4830 cc         1 L9W       0.325700
     10 C12         34.2690    39.3720    27.4710 c3         1 L9W       0.291100
     11 C15         33.9110    38.4330    31.1540 ca         1 L9W      -0.073000
     12 C16         32.5280    38.4540    31.3430 ca         1 L9W      -0.128000
     13 C17         31.7440    38.7690    30.2460 ca         1 L9W       0.131100
     14 C18         32.2900    39.0610    28.9980 ca         1 L9W      -0.146300
     15 C19         31.1650    39.3310    28.0320 c5         1 L9W      -0.054100
     16 O1          34.9620    28.4720    23.2410 o          1 L9W      -0.530500
     17 S           33.7280    29.0510    23.7430 sy         1 L9W       1.083500
     18 O           32.9790    28.3080    24.7410 o          1 L9W      -0.530500
     19 C           32.6540    29.3550    22.3610 c3         1 L9W      -0.342100
     20 C10         36.1680    35.1390    25.9800 cc         1 L9W      -0.038000
     21 N2          37.3740    34.6310    25.8070 nd         1 L9W      -0.104000
     22 N3          38.2860    35.6130    26.1260 nd         1 L9W      -0.338700
     23 N1          36.2870    36.4570    26.4150 na         1 L9W      -0.247300
     24 C9          35.1780    37.2380    26.7000 cc         1 L9W       0.826400
     25 N           33.9760    36.7350    26.5700 nd         1 L9W      -0.779000
     26 N4          35.3740    38.5030    27.0910 nu         1 L9W      -0.937100
     27 C13         33.6640    39.0360    28.8160 ca         1 L9W      -0.061300
     28 C20         29.9190    39.2050    28.9340 c5         1 L9W       0.149600
     29 O2          30.3840    38.8100    30.2620 os         1 L9W      -0.339100
     30 C14         34.4730    38.7180    29.9150 ca         1 L9W      -0.140000
     31 H1          32.4000    30.6670    25.7210 ha         1 L9W       0.137000
     32 H2          32.8820    32.9140    26.5930 ha         1 L9W       0.129500
     33 H3          36.3140    33.1740    24.0300 ha         1 L9W       0.129500
     34 H4          35.8430    30.9130    23.1740 ha         1 L9W       0.137000
     35 H5          32.8090    35.1250    26.0340 h4         1 L9W       0.031100
     36 H6          38.0900    37.6180    26.7880 h5         1 L9W       0.072800
     37 H7          34.6680    40.3870    27.4810 h1         1 L9W       0.068700
     38 H8          33.5070    39.3270    26.6950 h1         1 L9W       0.068700
     39 H10         32.0830    38.2280    32.3030 ha         1 L9W       0.134000
     40 H11         31.1520    38.6020    27.2190 hc         1 L9W       0.065700
     41 H12         31.7570    29.8540    22.7230 h1         1 L9W       0.101700
     42 H13         33.1840    29.9720    21.6380 h1         1 L9W       0.101700
     43 H14         32.4120    28.3800    21.9380 h1         1 L9W       0.101700
     44 H15         36.3100    38.8450    27.2260 hn         1 L9W       0.505000
     45 H16         29.3870    40.1500    29.0440 h1         1 L9W       0.060200
     46 H17         35.5490    38.6870    29.7940 ha         1 L9W       0.107000
     47 H18         31.2320    40.3230    27.5830 hc         1 L9W       0.065700
     48 H19         29.2240    38.4390    28.5930 h1         1 L9W       0.060200
     49 H9          34.5560    38.1900    31.9890 ha         1 L9W       0.119000
@<TRIPOS>BOND
     1     1     2 ar  
     2     1     6 ar  
     3     1    17 1   
     4     2     3 ar  
     5     2    31 1   
     6     3     4 ar  
     7     3    32 1   
     8     4     5 ar  
     9     4     7 1   
    10     5     6 ar  
    11     5    33 1   
    12     6    34 1   
    13     7     8 2   
    14     7    20 1   
    15     8    25 1   
    16     8    35 1   
    17     9    22 2   
    18     9    23 1   
    19     9    36 1   
    20    10    26 1   
    21    10    27 1   
    22    10    37 1   
    23    10    38 1   
    24    11    12 ar  
    25    11    30 ar  
    26    11    49 1   
    27    12    13 ar  
    28    12    39 1   
    29    13    14 ar  
    30    13    29 1   
    31    14    15 1   
    32    14    27 ar  
    33    15    28 1   
    34    15    40 1   
    35    15    47 1   
    36    16    17 2   
    37    17    18 2   
    38    17    19 1   
    39    19    41 1   
    40    19    42 1   
    41    19    43 1   
    42    20    21 2   
    43    20    23 1   
    44    21    22 1   
    45    23    24 1   
    46    24    25 2   
    47    24    26 1   
    48    26    44 1   
    49    27    30 ar  
    50    28    29 1   
    51    28    45 1   
    52    28    48 1   
    53    30    46 1   
@<TRIPOS>SUBSTRUCTURE
     1 L9W         1 TEMP              0 ****  ****    0 ROOT
