@<TRIPOS>MOLECULE
L9X
   51    51     1     0     0
SMALL
No Charge or Current Charge


@<TRIPOS>ATOM
      1 C1          -4.6910    -3.8240    -1.0770 c          1 L9X       0.726000
      2 N1          -6.2450    -1.9000    -0.1720 n8         1 L9X      -0.996200
      3 C2          -0.1640     3.0770    -1.0150 c          1 L9X       0.585100
      4 N2          -1.6630     1.1280    -0.5720 ns         1 L9X      -0.503900
      5 N4           3.9290    -2.1130     0.6380 n          1 L9X      -0.382400
      6 O11         -4.6160    -4.2590    -2.2200 o          1 L9X      -0.736000
      7 O12         -4.6300    -4.5420    -0.0850 o          1 L9X      -0.736000
      8 C8           5.1750    -1.7400     1.3420 c3         1 L9X       0.106000
      9 C3           3.1180    -3.1430     1.0980 c          1 L9X       0.574000
     10 O31          2.9710     5.2740     0.5420 o          1 L9X      -0.733000
     11 O32          2.3530     7.1580    -0.2990 o          1 L9X      -0.733000
     12 C4           2.0330    -3.2800     0.0270 c5         1 L9X      -0.152400
     13 C5           2.0060    -1.8810    -0.6570 c5         1 L9X      -0.031700
     14 C6           3.4260    -1.3240    -0.3910 c          1 L9X       0.570000
     15 CA1         -4.9650    -2.2720    -0.8770 c3         1 L9X       0.020500
     16 CA2         -0.3320     1.7160    -0.2820 c3         1 L9X       0.043700
     17 CA3          1.2030     5.2160    -1.0740 c3         1 L9X      -0.056000
     18 CB1         -3.7560    -1.5820    -0.1870 c3         1 L9X      -0.093400
     19 CB2          0.8040     0.7450    -0.6910 c3         1 L9X       0.056600
     20 CD1         -2.5060     0.5700     0.3630 c          1 L9X       0.600100
     21 OE1         -2.2670     0.5880     1.5620 o          1 L9X      -0.594100
     22 CG1         -3.7970    -0.0300    -0.2110 c3         1 L9X      -0.152400
     23 SG2          0.7180    -0.8610     0.2360 ss         1 L9X      -0.386000
     24 HN1         -6.2490    -2.3440     0.7550 hn         1 L9X       0.377500
     25 HN2         -1.9800     1.1140    -1.5350 hn         1 L9X       0.312500
     26 HN3          1.3860     3.5360     0.2550 hn         1 L9X       0.344500
     27 H1           6.3100    -3.5300     0.8290 hc         1 L9X       0.041033
     28 H1'A         6.5410    -2.1740    -0.3010 hc         1 L9X       0.041033
     29 H1'B         7.3140    -2.1400     1.3000 hc         1 L9X       0.041033
     30 H2           5.0890    -1.9950     2.4070 h1         1 L9X       0.065200
     31 H2'A         5.3160    -0.6530     1.2860 h1         1 L9X       0.065200
     32 H4           2.4030    -4.0100    -0.7010 hc         1 L9X       0.094200
     33 H4'A         1.0880    -3.6460     0.4410 hc         1 L9X       0.094200
     34 H5           1.8090    -1.9290    -1.7360 h1         1 L9X       0.101700
     35 HA2         -0.2510     1.9190     0.7930 h1         1 L9X       0.082700
     36 HA3          0.3010     5.8410    -1.1130 h1         1 L9X       0.035200
     37 HA3A         1.5980     5.0960    -2.0910 h1         1 L9X       0.035200
     38 HB1         -3.6730    -1.9330     0.8490 hc         1 L9X       0.060200
     39 HB1A        -2.8400    -1.9100    -0.6960 hc         1 L9X       0.060200
     40 HB2          0.7360     0.5390    -1.7680 h1         1 L9X       0.082700
     41 HB2A         1.7790     1.2120    -0.4980 h1         1 L9X       0.082700
     42 HG1         -3.9290     0.2950    -1.2500 hc         1 L9X       0.042700
     43 HG1A        -4.6400     0.3150     0.3980 hc         1 L9X       0.042700
     44 H23         -6.2320    -0.8960     0.0340 hn         1 L9X       0.377500
     45 H24         -5.0350    -1.8460    -1.8880 h1         1 L9X       0.034700
     46 O2          -0.8700     3.4270    -1.9560 o          1 L9X      -0.651100
     47 O4           4.0030    -0.3870    -0.9260 o          1 L9X      -0.490000
     48 C7           6.4120    -2.4400     0.7550 c3         1 L9X      -0.110100
     49 N3           0.8460     3.8840    -0.5310 ns         1 L9X      -0.451900
     50 O1           3.1930    -3.6710     2.1980 o          1 L9X      -0.521000
     51 C9           2.2750     5.9410    -0.2120 c          1 L9X       0.715000
@<TRIPOS>BOND
     1     1     6 1   
     2     1     7 1   
     3     1    15 1   
     4     2    15 1   
     5     2    24 1   
     6     2    44 1   
     7     3    16 1   
     8     3    46 2   
     9     3    49 1   
    10     4    16 1   
    11     4    20 1   
    12     4    25 1   
    13     5     8 1   
    14     5     9 1   
    15     5    14 1   
    16     8    30 1   
    17     8    31 1   
    18     8    48 1   
    19     9    12 1   
    20     9    50 2   
    21    10    51 1   
    22    11    51 1   
    23    12    13 1   
    24    12    32 1   
    25    12    33 1   
    26    13    14 1   
    27    13    23 1   
    28    13    34 1   
    29    14    47 2   
    30    15    18 1   
    31    15    45 1   
    32    16    19 1   
    33    16    35 1   
    34    17    36 1   
    35    17    37 1   
    36    17    49 1   
    37    17    51 1   
    38    18    22 1   
    39    18    38 1   
    40    18    39 1   
    41    19    23 1   
    42    19    40 1   
    43    19    41 1   
    44    20    21 2   
    45    20    22 1   
    46    22    42 1   
    47    22    43 1   
    48    26    49 1   
    49    27    48 1   
    50    28    48 1   
    51    29    48 1   
@<TRIPOS>SUBSTRUCTURE
     1 L9X         1 TEMP              0 ****  ****    0 ROOT
