@<TRIPOS>MOLECULE
L9X
   51    51     1     0     0
SMALL
abcg2


@<TRIPOS>ATOM
      1 C1          -6.7140    -2.1070     0.6670 c          1 L9X       0.726000
      2 N1          -6.4500    -1.0730    -1.5590 n8         1 L9X      -0.996200
      3 C2          -0.2280     2.3540    -0.7150 c          1 L9X       0.585100
      4 N2          -1.1840     0.1150    -0.4670 ns         1 L9X      -0.503900
      5 N4           4.9300    -2.2550     0.3310 n          1 L9X      -0.382400
      6 O11         -6.2870    -2.9560     1.4760 o          1 L9X      -0.736000
      7 O12         -7.8250    -1.5430     0.7010 o          1 L9X      -0.736000
      8 C8           6.2440    -2.0020     0.9000 c3         1 L9X       0.106000
      9 C3           4.3640    -3.5090     0.2540 c          1 L9X       0.574000
     10 O31          0.8040     5.1270     1.8970 o          1 L9X      -0.733000
     11 O32          0.6680     6.8750     0.5130 o          1 L9X      -0.733000
     12 C4           3.0370    -3.3890    -0.4480 c5         1 L9X      -0.152400
     13 C5           2.8510    -1.8960    -0.6930 c5         1 L9X      -0.031700
     14 C6           4.1540    -1.2740    -0.2360 c          1 L9X       0.570000
     15 CA1         -5.7350    -1.6850    -0.4520 c3         1 L9X       0.020500
     16 CA2         -0.1040     0.9710    -0.0580 c3         1 L9X       0.043700
     17 CA3          0.1880     4.7430    -0.3720 c3         1 L9X      -0.056000
     18 CB1         -4.6400    -0.8040     0.1750 c3         1 L9X      -0.093400
     19 CB2          1.2360     0.3810    -0.4840 c3         1 L9X       0.056600
     20 CD1         -2.4630     0.4290    -0.1970 c          1 L9X       0.600100
     21 OE1         -2.7520     1.4120     0.4720 o          1 L9X      -0.594100
     22 CG1         -3.5030    -0.4900    -0.7910 c3         1 L9X      -0.152400
     23 SG2          1.4690    -1.2490     0.2900 ss         1 L9X      -0.386000
     24 HN1         -7.0430    -0.3390    -1.1920 hn         1 L9X       0.377500
     25 HN2         -0.9820    -0.6800    -1.0510 hn         1 L9X       0.312500
     26 HN3          0.3970     3.2250     1.0260 hn         1 L9X       0.344500
     27 H1           7.3800    -3.0100    -0.6470 hc         1 L9X       0.041033
     28 H1'A         7.2010    -1.2690    -0.9020 hc         1 L9X       0.041033
     29 H1'B         8.3090    -1.8730     0.3280 hc         1 L9X       0.041033
     30 H2           6.4160    -2.7510     1.6710 h1         1 L9X       0.065200
     31 H2'A         6.2130    -1.0320     1.3940 h1         1 L9X       0.065200
     32 H4           3.0800    -3.9470    -1.3840 hc         1 L9X       0.094200
     33 H4'A         2.2530    -3.8460     0.1580 hc         1 L9X       0.094200
     34 H5           2.6760    -1.6610    -1.7450 h1         1 L9X       0.101700
     35 HA2         -0.1110     1.0840     1.0310 h1         1 L9X       0.082700
     36 HA3         -0.7910     5.0550    -0.7470 h1         1 L9X       0.035200
     37 HA3A         0.8940     4.8780    -1.1980 h1         1 L9X       0.035200
     38 HB1         -5.0890     0.1260     0.5340 hc         1 L9X       0.060200
     39 HB1A        -4.2330    -1.3200     1.0480 hc         1 L9X       0.060200
     40 HB2          1.2750     0.2600    -1.5690 h1         1 L9X       0.082700
     41 HB2A         2.0360     1.0560    -0.1840 h1         1 L9X       0.082700
     42 HG1         -3.0460    -1.4190    -1.1430 hc         1 L9X       0.042700
     43 HG1A        -3.8840     0.0210    -1.6820 hc         1 L9X       0.042700
     44 H23         -5.8060    -0.6350    -2.2050 hn         1 L9X       0.377500
     45 H24         -5.2480    -2.5950    -0.8250 h1         1 L9X       0.034700
     46 O2          -0.5960     2.4680    -1.8750 o          1 L9X      -0.651100
     47 O4           4.4720    -0.1130    -0.3260 o          1 L9X      -0.490000
     48 C7           7.3430    -2.0420    -0.1480 c3         1 L9X      -0.110100
     49 N3           0.1560     3.3680     0.0550 ns         1 L9X      -0.451900
     50 O1           4.8750    -4.5150     0.6780 o          1 L9X      -0.521000
     51 C9           0.5940     5.6670     0.7940 c          1 L9X       0.715000
@<TRIPOS>BOND
     1     1     6 1   
     2     1     7 1   
     3     1    15 1   
     4     2    15 1   
     5     2    24 1   
     6     2    44 1   
     7     3    16 1   
     8     3    46 2   
     9     3    49 1   
    10     4    16 1   
    11     4    20 1   
    12     4    25 1   
    13     5     8 1   
    14     5     9 1   
    15     5    14 1   
    16     8    30 1   
    17     8    31 1   
    18     8    48 1   
    19     9    12 1   
    20     9    50 2   
    21    10    51 1   
    22    11    51 1   
    23    12    13 1   
    24    12    32 1   
    25    12    33 1   
    26    13    14 1   
    27    13    23 1   
    28    13    34 1   
    29    14    47 2   
    30    15    18 1   
    31    15    45 1   
    32    16    19 1   
    33    16    35 1   
    34    17    36 1   
    35    17    37 1   
    36    17    49 1   
    37    17    51 1   
    38    18    22 1   
    39    18    38 1   
    40    18    39 1   
    41    19    23 1   
    42    19    40 1   
    43    19    41 1   
    44    20    21 2   
    45    20    22 1   
    46    22    42 1   
    47    22    43 1   
    48    26    49 1   
    49    27    48 1   
    50    28    48 1   
    51    29    48 1   
@<TRIPOS>SUBSTRUCTURE
     1 L9X         1 TEMP              0 ****  ****    0 ROOT
