@<TRIPOS>MOLECULE
L9Y
   55    57     1     0     0
SMALL
No Charge or Current Charge


@<TRIPOS>ATOM
      1 C01          3.8860     2.8000    -4.8830 c3         1 L9Y      -0.089100
      2 C02          4.3260     2.7540    -3.4070 c3         1 L9Y      -0.074400
      3 C03          3.3270     2.0020    -2.5010 c3         1 L9Y      -0.081400
      4 C04          3.7780     1.9590    -1.0160 c3         1 L9Y      -0.057400
      5 C05          2.8420     1.1930    -0.0210 c5         1 L9Y      -0.135000
      6 C06          1.4010     1.8680     0.1000 c5         1 L9Y      -0.038100
      7 C07          0.4870     0.6730    -0.0090 ca         1 L9Y       0.005700
      8 C08          1.1340    -0.5010    -0.3450 ca         1 L9Y      -0.244600
      9 C09          2.5950    -0.2810    -0.5100 c          1 L9Y       0.607700
     10 C11          0.4240    -1.7090    -0.4840 ca         1 L9Y       0.218000
     11 C13         -0.9740    -1.7040    -0.2790 ca         1 L9Y       0.036000
     12 C15         -1.6380    -0.5030     0.0600 ca         1 L9Y       0.222100
     13 C17         -3.7660     0.6310     0.6030 c3         1 L9Y       0.152600
     14 C18         -5.2420     0.2070     0.7330 c3         1 L9Y      -0.060400
     15 C19         -6.1820     1.3790     1.1110 c3         1 L9Y      -0.210400
     16 C20         -7.6320     0.8790     1.2210 c          1 L9Y       0.721000
     17 C23         -0.8980     0.6940     0.1960 ca         1 L9Y      -0.221000
     18 C24          3.4070     1.2200     1.4780 c5         1 L9Y      -0.049700
     19 C25          4.8000     0.5300     1.5660 c5         1 L9Y      -0.079400
     20 C26          4.9770     0.3480     3.1050 c5         1 L9Y      -0.078900
     21 C27          3.5260     0.3320     3.6900 c5         1 L9Y      -0.078900
     22 C28          2.6080     0.2870     2.4400 c5         1 L9Y      -0.079400
     23 O10          3.3810    -1.0540    -1.0430 o          1 L9Y      -0.517100
     24 O16         -3.0070    -0.5380     0.2530 os         1 L9Y      -0.317100
     25 O21         -8.0130     0.4520     2.3000 o          1 L9Y      -0.733500
     26 O22         -8.3200     0.8790     0.2110 o          1 L9Y      -0.733500
     27 Cl12         1.2490    -3.2200    -0.8830 cl         1 L9Y      -0.157000
     28 Cl14        -1.9040    -3.2030    -0.4400 cl         1 L9Y      -0.151000
     29 H012         4.6240     3.3410    -5.4860 hc         1 L9Y       0.031700
     30 H011         3.7870     1.7860    -5.2900 hc         1 L9Y       0.031700
     31 H013         2.9200     3.3090    -4.9850 hc         1 L9Y       0.031700
     32 H022         5.3090     2.2710    -3.3440 hc         1 L9Y       0.033700
     33 H021         4.4490     3.7810    -3.0410 hc         1 L9Y       0.033700
     34 H032         2.3480     2.4870    -2.5870 hc         1 L9Y       0.046200
     35 H031         3.2080     0.9810    -2.8820 hc         1 L9Y       0.046200
     36 H042         4.7770     1.5090    -0.9990 hc         1 L9Y       0.045200
     37 H041         3.9080     2.9900    -0.6630 hc         1 L9Y       0.045200
     38 H062         1.2470     2.4260     1.0310 hc         1 L9Y       0.064700
     39 H061         1.1940     2.5810    -0.7040 hc         1 L9Y       0.064700
     40 H171        -3.6720     1.4000    -0.1740 h1         1 L9Y       0.029700
     41 H172        -3.4180     1.0460     1.5580 h1         1 L9Y       0.029700
     42 H181        -5.5710    -0.2310    -0.2180 hc         1 L9Y       0.061700
     43 H182        -5.3200    -0.5810     1.4930 hc         1 L9Y       0.061700
     44 H191        -5.8270     1.7480     2.0810 hc         1 L9Y       0.017200
     45 H192        -6.0890     2.1120     0.2990 hc         1 L9Y       0.017200
     46 H231        -1.3760     1.6340     0.4560 ha         1 L9Y       0.135000
     47 H241         3.4600     2.2470     1.8630 hc         1 L9Y       0.042700
     48 H252         4.8270    -0.4420     1.0630 hc         1 L9Y       0.051450
     49 H251         5.6050     1.1390     1.1400 hc         1 L9Y       0.051450
     50 H261         5.5190    -0.5770     3.3340 hc         1 L9Y       0.037450
     51 H262         5.5580     1.1700     3.5380 hc         1 L9Y       0.037450
     52 H272         3.3550    -0.5220     4.3550 hc         1 L9Y       0.037450
     53 H271         3.3360     1.2370     4.2790 hc         1 L9Y       0.037450
     54 H282         1.6000     0.6520     2.6660 hc         1 L9Y       0.051450
     55 H281         2.5130    -0.7420     2.0740 hc         1 L9Y       0.051450
@<TRIPOS>BOND
     1     1     2 1   
     2     1    29 1   
     3     1    30 1   
     4     1    31 1   
     5     2     3 1   
     6     2    32 1   
     7     2    33 1   
     8     3     4 1   
     9     3    34 1   
    10     3    35 1   
    11     4     5 1   
    12     4    36 1   
    13     4    37 1   
    14     5     6 1   
    15     5     9 1   
    16     5    18 1   
    17     6     7 1   
    18     6    38 1   
    19     6    39 1   
    20     7     8 ar  
    21     7    17 ar  
    22     8     9 1   
    23     8    10 ar  
    24     9    23 2   
    25    10    11 ar  
    26    10    27 1   
    27    11    12 ar  
    28    11    28 1   
    29    12    17 ar  
    30    12    24 1   
    31    13    14 1   
    32    13    24 1   
    33    13    40 1   
    34    13    41 1   
    35    14    15 1   
    36    14    42 1   
    37    14    43 1   
    38    15    16 1   
    39    15    44 1   
    40    15    45 1   
    41    16    25 1   
    42    16    26 1   
    43    17    46 1   
    44    18    19 1   
    45    18    22 1   
    46    18    47 1   
    47    19    20 1   
    48    19    48 1   
    49    19    49 1   
    50    20    21 1   
    51    20    50 1   
    52    20    51 1   
    53    21    22 1   
    54    21    52 1   
    55    21    53 1   
    56    22    54 1   
    57    22    55 1   
@<TRIPOS>SUBSTRUCTURE
     1 L9Y         1 TEMP              0 ****  ****    0 ROOT
