@<TRIPOS>MOLECULE
L9Y
   55    57     1     0     0
SMALL
bcc


@<TRIPOS>ATOM
      1 C01          3.2870     2.7020    -4.7110 c3         1 L9Y      -0.089100
      2 C02          3.9120     2.6210    -3.3250 c3         1 L9Y      -0.074400
      3 C03          3.0540     1.8400    -2.3370 c3         1 L9Y      -0.081400
      4 C04          3.6700     1.8020    -0.9420 c3         1 L9Y      -0.057400
      5 C05          2.8330     1.0960     0.1350 c5         1 L9Y      -0.135000
      6 C06          1.4270     1.7140     0.2940 c5         1 L9Y      -0.038100
      7 C07          0.4660     0.5830     0.1090 ca         1 L9Y       0.005700
      8 C08          1.1220    -0.5950    -0.2140 ca         1 L9Y      -0.244600
      9 C09          2.5690    -0.3540    -0.2790 c          1 L9Y       0.607700
     10 C11          0.3890    -1.7630    -0.4250 ca         1 L9Y       0.126400
     11 C13         -0.9860    -1.7280    -0.3060 ca         1 L9Y      -0.055600
     12 C15         -1.6500    -0.5240     0.0220 ca         1 L9Y       0.222100
     13 C17         -3.7250     0.5760     0.4060 c3         1 L9Y       0.129400
     14 C18         -5.1910     0.2090     0.4360 c3         1 L9Y      -0.060400
     15 C19         -6.0420     1.4340     0.7330 c3         1 L9Y      -0.210400
     16 C20         -7.5610     1.1850     0.7840 c          1 L9Y       0.931600
     17 C23         -0.9120     0.6370     0.2290 ca         1 L9Y      -0.239000
     18 C24          3.5580     1.1460     1.4990 c5         1 L9Y      -0.049700
     19 C25          5.0100     0.6760     1.5690 c5         1 L9Y      -0.079400
     20 C26          5.3000     0.6430     3.0750 c5         1 L9Y      -0.078900
     21 C27          3.9400     0.3690     3.7600 c5         1 L9Y      -0.078900
     22 C28          2.9040     0.3410     2.6280 c5         1 L9Y      -0.079400
     23 O10          3.4200    -1.1490    -0.6120 o          1 L9Y      -0.517100
     24 O16         -2.9710    -0.6030     0.1090 os         1 L9Y      -0.293900
     25 O21         -7.9660     0.0220     0.5990 o          1 L9Y      -0.838800
     26 O22         -8.2660     2.1910     1.0120 o          1 L9Y      -0.838800
     27 CL12         1.1770    -3.2340    -0.8200 cl         1 L9Y      -0.065400
     28 CL14        -1.9340    -3.1400    -0.5500 cl         1 L9Y      -0.059400
     29 H012         3.9150     3.2670    -5.4010 hc         1 L9Y       0.031700
     30 H011         3.1390     1.7070    -5.1360 hc         1 L9Y       0.031700
     31 H013         2.3120     3.1910    -4.6740 hc         1 L9Y       0.031700
     32 H022         4.9010     2.1570    -3.3940 hc         1 L9Y       0.033700
     33 H021         4.0780     3.6310    -2.9380 hc         1 L9Y       0.033700
     34 H032         2.0570     2.2910    -2.3080 hc         1 L9Y       0.046200
     35 H031         2.9130     0.8220    -2.7160 hc         1 L9Y       0.046200
     36 H042         4.6460     1.3150    -1.0080 hc         1 L9Y       0.045200
     37 H041         3.8620     2.8250    -0.6000 hc         1 L9Y       0.045200
     38 H062         1.2900     2.1820     1.2710 hc         1 L9Y       0.064700
     39 H061         1.2340     2.4980    -0.4420 hc         1 L9Y       0.064700
     40 H171        -3.5310     1.3370    -0.3570 h1         1 L9Y       0.029700
     41 H172        -3.4080     0.9820     1.3730 h1         1 L9Y       0.029700
     42 H181        -5.4790    -0.2220    -0.5250 hc         1 L9Y       0.061700
     43 H182        -5.3590    -0.5580     1.1960 hc         1 L9Y       0.061700
     44 H191        -5.7390     1.8760     1.6890 hc         1 L9Y       0.017200
     45 H192        -5.8490     2.2110    -0.0150 hc         1 L9Y       0.017200
     46 H231        -1.3960     1.5700     0.4830 ha         1 L9Y       0.153000
     47 H241         3.5460     2.2050     1.7940 hc         1 L9Y       0.042700
     48 H252         5.1090    -0.3240     1.1420 hc         1 L9Y       0.051450
     49 H251         5.6990     1.3280     1.0310 hc         1 L9Y       0.051450
     50 H261         6.0520    -0.1050     3.3270 hc         1 L9Y       0.037450
     51 H262         5.6990     1.6070     3.3980 hc         1 L9Y       0.037450
     52 H272         3.9430    -0.5670     4.3200 hc         1 L9Y       0.037450
     53 H271         3.7060     1.1580     4.4770 hc         1 L9Y       0.037450
     54 H282         1.9340     0.7360     2.9330 hc         1 L9Y       0.051450
     55 H281         2.7380    -0.6920     2.3040 hc         1 L9Y       0.051450
@<TRIPOS>BOND
     1     1     2 1   
     2     1    29 1   
     3     1    30 1   
     4     1    31 1   
     5     2     3 1   
     6     2    32 1   
     7     2    33 1   
     8     3     4 1   
     9     3    34 1   
    10     3    35 1   
    11     4     5 1   
    12     4    36 1   
    13     4    37 1   
    14     5     6 1   
    15     5     9 1   
    16     5    18 1   
    17     6     7 1   
    18     6    38 1   
    19     6    39 1   
    20     7     8 ar  
    21     7    17 ar  
    22     8     9 1   
    23     8    10 ar  
    24     9    23 2   
    25    10    11 ar  
    26    10    27 1   
    27    11    12 ar  
    28    11    28 1   
    29    12    17 ar  
    30    12    24 1   
    31    13    14 1   
    32    13    24 1   
    33    13    40 1   
    34    13    41 1   
    35    14    15 1   
    36    14    42 1   
    37    14    43 1   
    38    15    16 1   
    39    15    44 1   
    40    15    45 1   
    41    16    25 1   
    42    16    26 1   
    43    17    46 1   
    44    18    19 1   
    45    18    22 1   
    46    18    47 1   
    47    19    20 1   
    48    19    48 1   
    49    19    49 1   
    50    20    21 1   
    51    20    50 1   
    52    20    51 1   
    53    21    22 1   
    54    21    52 1   
    55    21    53 1   
    56    22    54 1   
    57    22    55 1   
@<TRIPOS>SUBSTRUCTURE
     1 L9Y         1 TEMP              0 ****  ****    0 ROOT
