@<TRIPOS>MOLECULE
L9Z
   28    28     1     0     0
SMALL
bcc


@<TRIPOS>ATOM
      1 O16        -17.5120    -1.4200   -14.6770 o          1 L9Z      -0.840300
      2 C14        -16.7300    -0.7140   -14.0090 c          1 L9Z       0.931600
      3 O15        -15.8920     0.0930   -14.4630 o          1 L9Z      -0.840300
      4 C5         -16.7800    -0.8330   -12.4690 c6         1 L9Z      -0.188700
      5 C6         -15.4220    -1.2810   -11.9250 c6         1 L9Z      -0.078400
      6 C1         -15.3780    -1.3350   -10.3930 c6         1 L9Z       0.149800
      7 O28        -15.5650    -0.0480    -9.8430 oh         1 L9Z      -0.589800
      8 C21        -14.0130    -1.8600    -9.9190 c3         1 L9Z       0.116800
      9 C4         -17.8720    -1.7560   -11.9460 c6         1 L9Z      -0.049400
     10 C3         -17.8690    -1.8040   -10.4290 c6         1 L9Z       0.133100
     11 O19        -18.8780    -2.6970   -10.0020 oh         1 L9Z      -0.610800
     12 C2         -16.5050    -2.2500    -9.9030 c6         1 L9Z       0.116100
     13 O17        -16.5570    -2.2960    -8.4870 oh         1 L9Z      -0.605800
     14 H2         -16.9670     0.1760   -12.0810 hc         1 L9Z       0.047700
     15 H3         -15.1890    -2.2760   -12.3230 hc         1 L9Z       0.044200
     16 H4         -14.6410    -0.6090   -12.2890 hc         1 L9Z       0.044200
     17 H5         -14.6660     0.3250    -9.8220 ho         1 L9Z       0.421000
     18 H6         -14.0660    -2.0690    -8.8490 h1         1 L9Z       0.029200
     19 H7         -13.7840    -2.8070   -10.4220 h1         1 L9Z       0.029200
     20 H9         -18.8530    -1.4310   -12.2990 hc         1 L9Z       0.053200
     21 H10        -17.7170    -2.7690   -12.3340 hc         1 L9Z       0.053200
     22 H11        -18.0730    -0.7930   -10.0420 h1         1 L9Z       0.051700
     23 H12        -18.8420    -2.7310    -9.0410 ho         1 L9Z       0.390000
     24 H13        -16.3070    -3.2510   -10.3120 h1         1 L9Z       0.033700
     25 H14        -16.3620    -3.1900    -8.1970 ho         1 L9Z       0.383000
     26 N1         -13.0070    -0.8250   -10.1190 n8         1 L9Z      -0.910800
     27 H8         -12.2210    -0.9680    -9.5000 hn         1 L9Z       0.344300
     28 H15        -12.6400    -0.8540   -11.0610 hn         1 L9Z       0.344300
@<TRIPOS>BOND
     1     1     2 1   
     2     2     3 1   
     3     2     4 1   
     4     4     5 1   
     5     4     9 1   
     6     4    14 1   
     7     5     6 1   
     8     5    15 1   
     9     5    16 1   
    10     6     7 1   
    11     6     8 1   
    12     6    12 1   
    13     7    17 1   
    14     8    18 1   
    15     8    19 1   
    16     8    26 1   
    17     9    10 1   
    18     9    20 1   
    19     9    21 1   
    20    10    11 1   
    21    10    12 1   
    22    10    22 1   
    23    11    23 1   
    24    12    13 1   
    25    12    24 1   
    26    13    25 1   
    27    26    27 1   
    28    26    28 1   
@<TRIPOS>SUBSTRUCTURE
     1 L9Z         1 TEMP              0 ****  ****    0 ROOT
