@<TRIPOS>MOLECULE
L9Z
   28    28     1     0     0
SMALL
No Charge or Current Charge


@<TRIPOS>ATOM
      1 O16        -16.6480    -1.6570   -14.7110 o          1 L9Z      -0.735000
      2 C14        -16.7770    -0.6470   -14.0340 c          1 L9Z       0.721000
      3 O15        -16.9180     0.4710   -14.5070 o          1 L9Z      -0.735000
      4 C5         -16.7660    -0.7870   -12.4940 c6         1 L9Z      -0.188700
      5 C6         -15.4090    -1.3390   -11.9590 c6         1 L9Z      -0.078400
      6 C1         -15.3700    -1.4800   -10.4040 c6         1 L9Z       0.173000
      7 O28        -15.3400    -0.1810    -9.8100 oh         1 L9Z      -0.712000
      8 C21        -13.9960    -2.0850    -9.9520 c3         1 L9Z       0.116800
      9 C4         -17.9500    -1.6540   -11.9800 c6         1 L9Z      -0.049400
     10 C3         -17.9480    -1.7370   -10.4340 c6         1 L9Z       0.156300
     11 O19        -19.0410    -2.5460    -9.9750 oh         1 L9Z      -0.733000
     12 C2         -16.6000    -2.3240    -9.9030 c6         1 L9Z       0.139300
     13 O17        -16.6390    -2.3860    -8.4630 oh         1 L9Z      -0.668000
     14 H2         -16.8970     0.2260   -12.0890 hc         1 L9Z       0.047700
     15 H3         -15.2180    -2.3220   -12.4120 hc         1 L9Z       0.044200
     16 H4         -14.5930    -0.6870   -12.3000 hc         1 L9Z       0.044200
     17 H5         -14.3530    -0.1210    -9.6480 ho         1 L9Z       0.520000
     18 H6         -14.1020    -2.5140    -8.9470 h1         1 L9Z       0.029200
     19 H7         -13.6860    -2.8910   -10.6320 h1         1 L9Z       0.029200
     20 H9         -18.9000    -1.2220   -12.3250 hc         1 L9Z       0.053200
     21 H10        -17.8910    -2.6640   -12.4070 hc         1 L9Z       0.053200
     22 H11        -18.0560    -0.7150   -10.0390 h1         1 L9Z       0.051700
     23 H12        -18.7590    -2.8470    -9.0780 ho         1 L9Z       0.489000
     24 H13        -16.4930    -3.3420   -10.3070 h1         1 L9Z       0.033700
     25 H14        -16.3330    -1.5000    -8.1640 ho         1 L9Z       0.422000
     26 N1         -12.9280    -1.0420    -9.8840 n8         1 L9Z      -1.021200
     27 H8         -12.0860    -1.4570    -9.4600 hn         1 L9Z       0.399500
     28 H15        -12.6110    -0.8230   -10.8390 hn         1 L9Z       0.399500
@<TRIPOS>BOND
     1     1     2 1   
     2     2     3 1   
     3     2     4 1   
     4     4     5 1   
     5     4     9 1   
     6     4    14 1   
     7     5     6 1   
     8     5    15 1   
     9     5    16 1   
    10     6     7 1   
    11     6     8 1   
    12     6    12 1   
    13     7    17 1   
    14     8    18 1   
    15     8    19 1   
    16     8    26 1   
    17     9    10 1   
    18     9    20 1   
    19     9    21 1   
    20    10    11 1   
    21    10    12 1   
    22    10    22 1   
    23    11    23 1   
    24    12    13 1   
    25    12    24 1   
    26    13    25 1   
    27    26    27 1   
    28    26    28 1   
@<TRIPOS>SUBSTRUCTURE
     1 L9Z         1 TEMP              0 ****  ****    0 ROOT
