@<TRIPOS>MOLECULE
LA2
   48    47     1     0     0
SMALL
bcc


@<TRIPOS>ATOM
      1 CB          76.0200    84.4610    61.7180 c3         1 LA2      -0.055400
      2 C           76.7630    86.6320    60.7160 c          1 LA2       0.901600
      3 O           75.9190    87.4290    61.1780 o          1 LA2      -0.840800
      4 N           77.0890    84.4120    59.5190 n8         1 LA2      -0.889800
      5 CA          76.2430    85.2070    60.3980 c3         1 LA2       0.011500
      6 O1          70.8800    82.4180    62.4050 o          1 LA2      -0.624100
      7 C1          70.7310    83.0880    61.3900 c          1 LA2       0.661100
      8 NZ          71.6840    83.9050    60.9110 ns         1 LA2      -0.562900
      9 CE          73.0040    84.0250    61.4930 c3         1 LA2       0.089000
     10 CD          74.0210    83.0710    60.8730 c3         1 LA2      -0.086400
     11 CG          75.3700    83.0860    61.5880 c3         1 LA2      -0.060400
     12 C2          69.4430    83.0420    60.5950 c3         1 LA2      -0.159400
     13 C3          68.2100    83.2750    61.4640 c3         1 LA2      -0.066400
     14 C4          66.9150    83.0880    60.6860 c3         1 LA2      -0.078400
     15 C5          65.6860    83.3110    61.5560 c3         1 LA2      -0.073400
     16 C6          64.3500    83.1960    60.8330 c3         1 LA2       0.057400
     17 S6          64.1220    81.5610    60.0380 sh         1 LA2      -0.420900
     18 C7          63.1480    83.4890    61.7310 c3         1 LA2      -0.062400
     19 C8          63.1630    84.8390    62.4360 c3         1 LA2       0.037700
     20 S8          63.2400    86.1900    61.2090 sh         1 LA2      -0.410900
     21 HB          75.4230    85.0920    62.3800 hc         1 LA2       0.038200
     22 HBA         76.9890    84.3420    62.2190 hc         1 LA2       0.038200
     23 OXT         77.9730    86.8580    60.5160 o          1 LA2      -0.840800
     24 HN          77.1220    84.8570    58.6100 hn         1 LA2       0.325300
     25 HNA         78.0400    84.4790    59.8660 hn         1 LA2       0.325300
     26 HA          75.2730    85.3200    59.9020 h1         1 LA2       0.031700
     27 HNZ         71.5060    84.4030    60.0540 hn         1 LA2       0.307500
     28 HE          73.3270    85.0600    61.3670 h1         1 LA2       0.069200
     29 HEA         72.9270    83.8460    62.5660 h1         1 LA2       0.069200
     30 HD          73.6170    82.0550    60.9030 hc         1 LA2       0.034700
     31 HDA         74.1500    83.3170    59.8160 hc         1 LA2       0.034700
     32 HG          76.0480    82.4080    61.0660 hc         1 LA2       0.027200
     33 HGA         75.2410    82.6690    62.5930 hc         1 LA2       0.027200
     34 H2          69.4570    83.7570    59.7690 hc         1 LA2       0.052700
     35 H2A         69.3810    82.0470    60.1410 hc         1 LA2       0.052700
     36 H3          68.2250    82.5860    62.3110 hc         1 LA2       0.050700
     37 H3A         68.2460    84.2850    61.8840 hc         1 LA2       0.050700
     38 H4          66.8890    83.7800    59.8370 hc         1 LA2       0.048200
     39 H4A         66.8920    82.0810    60.2600 hc         1 LA2       0.048200
     40 H5          65.6950    82.6150    62.4030 hc         1 LA2       0.044700
     41 H5A         65.7490    84.3160    61.9870 hc         1 LA2       0.044700
     42 H6          64.3500    83.8830    59.9800 h1         1 LA2       0.098700
     43 HS6         64.1920    80.8300    61.1580 hs         1 LA2       0.210800
     44 H7          62.2330    83.4030    61.1410 hc         1 LA2       0.056200
     45 H7A         63.0890    82.7200    62.5080 hc         1 LA2       0.056200
     46 H8          62.2510    84.9440    63.0210 h1         1 LA2       0.059700
     47 H8A         64.0080    84.9240    63.1180 h1         1 LA2       0.059700
     48 HS8         63.2310    87.2100    62.0730 hs         1 LA2       0.211800
@<TRIPOS>BOND
     1     1     5 1   
     2     1    11 1   
     3     1    21 1   
     4     1    22 1   
     5     2     3 1   
     6     2     5 1   
     7     2    23 1   
     8     4     5 1   
     9     4    24 1   
    10     4    25 1   
    11     5    26 1   
    12     6     7 2   
    13     7     8 1   
    14     7    12 1   
    15     8     9 1   
    16     8    27 1   
    17     9    10 1   
    18     9    28 1   
    19     9    29 1   
    20    10    11 1   
    21    10    30 1   
    22    10    31 1   
    23    11    32 1   
    24    11    33 1   
    25    12    13 1   
    26    12    34 1   
    27    12    35 1   
    28    13    14 1   
    29    13    36 1   
    30    13    37 1   
    31    14    15 1   
    32    14    38 1   
    33    14    39 1   
    34    15    16 1   
    35    15    40 1   
    36    15    41 1   
    37    16    17 1   
    38    16    18 1   
    39    16    42 1   
    40    17    43 1   
    41    18    19 1   
    42    18    44 1   
    43    18    45 1   
    44    19    20 1   
    45    19    46 1   
    46    19    47 1   
    47    20    48 1   
@<TRIPOS>SUBSTRUCTURE
     1 LA2         1 TEMP              0 ****  ****    0 ROOT
