@<TRIPOS>MOLECULE
LA2
   48    47     1     0     0
SMALL
No Charge or Current Charge


@<TRIPOS>ATOM
      1 CB          76.0120    84.6130    61.6980 c3         1 LA2      -0.055400
      2 C           76.5450    86.8830    60.6080 c          1 LA2       0.691000
      3 O           75.6850    87.7090    60.3360 o          1 LA2      -0.735500
      4 N           77.2150    84.6120    59.4770 n8         1 LA2      -1.000200
      5 CA          76.2270    85.3520    60.3450 c3         1 LA2       0.011500
      6 O1          71.0920    81.6710    62.0700 o          1 LA2      -0.624100
      7 C1          70.7770    82.5810    61.3150 c          1 LA2       0.594100
      8 NZ          71.5900    83.6690    61.0900 ns         1 LA2      -0.495900
      9 CE          72.9110    83.8680    61.6940 c3         1 LA2       0.089000
     10 CD          74.0120    83.0730    60.9580 c3         1 LA2      -0.086400
     11 CG          75.4150    83.1810    61.6070 c3         1 LA2      -0.060400
     12 C2          69.4620    82.5800    60.5260 c3         1 LA2      -0.159400
     13 C3          68.2520    82.8920    61.4370 c3         1 LA2      -0.066400
     14 C4          66.9090    82.9030    60.6730 c3         1 LA2      -0.078400
     15 C5          65.6980    83.2150    61.5870 c3         1 LA2      -0.073400
     16 C6          64.3420    83.3080    60.8370 c3         1 LA2       0.105300
     17 S6          63.9230    81.7280    59.9580 sh         1 LA2      -0.468800
     18 C7          63.1670    83.7330    61.7580 c3         1 LA2      -0.062400
     19 C8          63.2880    85.1380    62.3910 c3         1 LA2       0.085600
     20 S8          63.4300    86.5130    61.1560 sh         1 LA2      -0.458800
     21 HB          75.3600    85.2250    62.3320 hc         1 LA2       0.038200
     22 HBA         76.9710    84.5580    62.2270 hc         1 LA2       0.038200
     23 OXT         77.6760    87.1910    60.9650 o          1 LA2      -0.735500
     24 HN          77.2980    85.0990    58.5770 hn         1 LA2       0.380500
     25 HNA         78.1500    84.7250    59.8890 hn         1 LA2       0.380500
     26 HA          75.2690    85.3360    59.8070 h1         1 LA2       0.031700
     27 HNZ         71.2440    84.3680    60.4430 hn         1 LA2       0.307500
     28 HE          73.1460    84.9400    61.6650 h1         1 LA2       0.069200
     29 HEA         72.8740    83.5600    62.7480 h1         1 LA2       0.069200
     30 HD          73.7290    82.0140    60.9360 hc         1 LA2       0.034700
     31 HDA         74.0600    83.4000    59.9130 hc         1 LA2       0.034700
     32 HG          76.1080    82.5360    61.0530 hc         1 LA2       0.027200
     33 HGA         75.3620    82.7650    62.6200 hc         1 LA2       0.027200
     34 H2          69.5020    83.3340    59.7310 hc         1 LA2       0.052700
     35 H2A         69.3180    81.5860    60.0870 hc         1 LA2       0.052700
     36 H3          68.2030    82.1470    62.2420 hc         1 LA2       0.050700
     37 H3A         68.4040    83.8680    61.9150 hc         1 LA2       0.050700
     38 H4          66.9560    83.6510    59.8720 hc         1 LA2       0.048200
     39 H4A         66.7690    81.9270    60.1930 hc         1 LA2       0.048200
     40 H5          65.6270    82.4470    62.3680 hc         1 LA2       0.044700
     41 H5A         65.8980    84.1650    62.0940 hc         1 LA2       0.044700
     42 H6          64.4460    84.0750    60.0570 h1         1 LA2       0.098700
     43 HS6         63.8660    80.9530    61.0690 hs         1 LA2       0.210800
     44 H7          62.2390    83.7040    61.1740 hc         1 LA2       0.056200
     45 H7A         63.0530    82.9930    62.5590 hc         1 LA2       0.056200
     46 H8          62.3960    85.3260    63.0040 h1         1 LA2       0.059700
     47 H8A         64.1570    85.1760    63.0610 h1         1 LA2       0.059700
     48 HS8         63.4900    87.5210    62.0620 hs         1 LA2       0.211800
@<TRIPOS>BOND
     1     1     5 1   
     2     1    11 1   
     3     1    21 1   
     4     1    22 1   
     5     2     3 1   
     6     2     5 1   
     7     2    23 1   
     8     4     5 1   
     9     4    24 1   
    10     4    25 1   
    11     5    26 1   
    12     6     7 2   
    13     7     8 1   
    14     7    12 1   
    15     8     9 1   
    16     8    27 1   
    17     9    10 1   
    18     9    28 1   
    19     9    29 1   
    20    10    11 1   
    21    10    30 1   
    22    10    31 1   
    23    11    32 1   
    24    11    33 1   
    25    12    13 1   
    26    12    34 1   
    27    12    35 1   
    28    13    14 1   
    29    13    36 1   
    30    13    37 1   
    31    14    15 1   
    32    14    38 1   
    33    14    39 1   
    34    15    16 1   
    35    15    40 1   
    36    15    41 1   
    37    16    17 1   
    38    16    18 1   
    39    16    42 1   
    40    17    43 1   
    41    18    19 1   
    42    18    44 1   
    43    18    45 1   
    44    19    20 1   
    45    19    46 1   
    46    19    47 1   
    47    20    48 1   
@<TRIPOS>SUBSTRUCTURE
     1 LA2         1 TEMP              0 ****  ****    0 ROOT
