@<TRIPOS>MOLECULE
LA3
   61    65     1     0     0
SMALL
No Charge or Current Charge


@<TRIPOS>ATOM
      1 C1          -1.5030     0.7430    -1.9220 ca         1 LA3      -0.101000
      2 C2          -0.5870     2.2560     0.2540 ca         1 LA3      -0.102500
      3 C3          -2.2800     0.7740    -0.7370 cp         1 LA3      -0.041000
      4 C4          -0.2920     1.4500    -2.0160 ca         1 LA3      -0.102500
      5 C5           0.1760     2.2070    -0.9260 ca         1 LA3      -0.084300
      6 C6          -1.7970     1.5490     0.3470 ca         1 LA3      -0.101000
      7 C7          -3.5590     0.0040    -0.6300 cp         1 LA3      -0.034000
      8 C8           1.5270     2.9110    -1.0000 c3         1 LA3      -0.027100
      9 C9          -5.9580    -1.4510    -0.4320 ca         1 LA3       0.055100
     10 C10         -3.9510    -0.5930     0.6020 ca         1 LA3      -0.097000
     11 C11         -4.4170    -0.1600    -1.7590 ca         1 LA3      -0.099000
     12 C12         -5.6220    -0.8890    -1.6680 ca         1 LA3      -0.094000
     13 C13         -5.1530    -1.3080     0.6610 ca         1 LA3       0.051100
     14 O14         -5.6490    -1.9390     1.7550 os         1 LA3      -0.345100
     15 O15         -7.0670    -2.1880    -0.1690 os         1 LA3      -0.341100
     16 C16         -6.9350    -2.4670     1.2710 c5         1 LA3       0.372600
     17 C17          2.6160     2.1170    -0.2300 c3         1 LA3      -0.130700
     18 C18          2.6600     0.6610    -0.7370 c          1 LA3       0.602100
     19 C19          4.0240     2.7840    -0.2840 c3         1 LA3      -0.151400
     20 C20          4.0640     4.1510     0.4120 c          1 LA3       0.598100
     21 O21          3.9950     4.2660     1.6290 o          1 LA3      -0.573100
     22 N22          4.2060     5.2440    -0.4360 ns         1 LA3      -0.386400
     23 O23          4.5310     6.5560     0.0850 oh         1 LA3      -0.425100
     24 O24          3.0610     0.3680    -1.8570 o          1 LA3      -0.617100
     25 N25          2.2050    -0.2730     0.1650 ns         1 LA3      -0.477900
     26 C26          1.9190    -1.6310    -0.3070 c5         1 LA3       0.161000
     27 C27          2.8600    -2.6980     0.1890 ca         1 LA3      -0.097300
     28 C28          0.5640    -2.0500     0.4380 c5         1 LA3       0.150300
     29 O29          0.3850    -1.4060     1.7150 oh         1 LA3      -0.662000
     30 C30          0.6860    -3.6140     0.6260 c5         1 LA3      -0.064100
     31 C31          4.2850    -4.8920     1.1750 ca         1 LA3      -0.108000
     32 C32          4.2640    -2.6730     0.1520 ca         1 LA3      -0.074000
     33 C33          2.1820    -3.7880     0.6990 ca         1 LA3      -0.080300
     34 C34          2.8760    -4.9010     1.1980 ca         1 LA3      -0.097000
     35 C35          4.9780    -3.7790     0.6520 ca         1 LA3      -0.114000
     36 H1          -1.8290     0.1480    -2.7700 ha         1 LA3       0.116500
     37 H2          -0.2360     2.8330     1.1070 ha         1 LA3       0.122000
     38 H4           0.2920     1.3890    -2.9310 ha         1 LA3       0.122000
     39 H6          -2.3690     1.6080     1.2700 ha         1 LA3       0.116500
     40 H8           1.8360     3.0370    -2.0450 hc         1 LA3       0.060700
     41 H8A          1.4380     3.9210    -0.5820 hc         1 LA3       0.060700
     42 H10         -3.3280    -0.5130     1.4880 ha         1 LA3       0.128000
     43 H11         -4.1520     0.2940    -2.7110 ha         1 LA3       0.124000
     44 H12         -6.2730    -1.0110    -2.5310 ha         1 LA3       0.137000
     45 H16         -6.9770    -3.5490     1.4410 h2         1 LA3       0.066700
     46 H16A        -7.7520    -1.9710     1.8080 h2         1 LA3       0.066700
     47 H17          2.3030     2.0890     0.8220 hc         1 LA3       0.080700
     48 H19          4.7330     2.1260     0.2330 hc         1 LA3       0.076700
     49 H19A         4.3290     2.8850    -1.3330 hc         1 LA3       0.076700
     50 HN22         4.4140     5.0870    -1.4220 hn         1 LA3       0.335500
     51 HO23         3.8670     7.1480    -0.3430 ho         1 LA3       0.446000
     52 HN25         1.8470     0.0590     1.0530 hn         1 LA3       0.336500
     53 H26          1.7940    -1.7060    -1.3960 h1         1 LA3       0.086700
     54 H28         -0.2980    -1.8090    -0.2010 h1         1 LA3       0.053700
     55 HO29        -0.4390    -1.7710     2.1050 ho         1 LA3       0.447000
     56 H30          0.1670    -3.9760     1.5210 hc         1 LA3       0.060200
     57 H30A         0.2680    -4.1490    -0.2340 hc         1 LA3       0.060200
     58 H31          4.8390    -5.7460     1.5580 ha         1 LA3       0.111000
     59 H32          4.7910    -1.8130    -0.2570 ha         1 LA3       0.122000
     60 H34          2.3360    -5.7570     1.5960 ha         1 LA3       0.112000
     61 H35          6.0650    -3.7760     0.6330 ha         1 LA3       0.112000
@<TRIPOS>BOND
     1     1     3 ar  
     2     1     4 ar  
     3     1    36 1   
     4     2     5 ar  
     5     2     6 ar  
     6     2    37 1   
     7     3     6 ar  
     8     3     7 1   
     9     4     5 ar  
    10     4    38 1   
    11     5     8 1   
    12     6    39 1   
    13     7    10 ar  
    14     7    11 ar  
    15     8    17 1   
    16     8    40 1   
    17     8    41 1   
    18     9    12 ar  
    19     9    13 ar  
    20     9    15 1   
    21    10    13 ar  
    22    10    42 1   
    23    11    12 ar  
    24    11    43 1   
    25    12    44 1   
    26    13    14 1   
    27    14    16 1   
    28    15    16 1   
    29    16    45 1   
    30    16    46 1   
    31    17    18 1   
    32    17    19 1   
    33    17    47 1   
    34    18    24 2   
    35    18    25 1   
    36    19    20 1   
    37    19    48 1   
    38    19    49 1   
    39    20    21 2   
    40    20    22 1   
    41    22    23 1   
    42    22    50 1   
    43    23    51 1   
    44    25    26 1   
    45    25    52 1   
    46    26    27 1   
    47    26    28 1   
    48    26    53 1   
    49    27    32 ar  
    50    27    33 ar  
    51    28    29 1   
    52    28    30 1   
    53    28    54 1   
    54    29    55 1   
    55    30    33 1   
    56    30    56 1   
    57    30    57 1   
    58    31    34 ar  
    59    31    35 ar  
    60    31    58 1   
    61    32    35 ar  
    62    32    59 1   
    63    33    34 ar  
    64    34    60 1   
    65    35    61 1   
@<TRIPOS>SUBSTRUCTURE
     1 LA3         1 TEMP              0 ****  ****    0 ROOT
