@<TRIPOS>MOLECULE
LA3
   61    65     1     0     0
SMALL
abcg2


@<TRIPOS>ATOM
      1 C1          -1.4270     0.7760    -1.8800 ca         1 LA3      -0.101000
      2 C2          -0.5510     2.2430     0.2880 ca         1 LA3      -0.102500
      3 C3          -2.1650     0.7350    -0.6980 cp         1 LA3      -0.041000
      4 C4          -0.2650     1.5260    -1.9700 ca         1 LA3      -0.102500
      5 C5           0.1990     2.2610    -0.8850 ca         1 LA3      -0.084300
      6 C6          -1.7100     1.4910     0.3840 ca         1 LA3      -0.101000
      7 C7          -3.3770    -0.1000    -0.5880 cp         1 LA3      -0.034000
      8 C8           1.5280     2.9610    -0.9330 c3         1 LA3      -0.027100
      9 C9          -5.6450    -1.6650    -0.4060 ca         1 LA3       0.055100
     10 C10         -3.6410    -0.7890     0.6120 ca         1 LA3      -0.097000
     11 C11         -4.2590    -0.2200    -1.6590 ca         1 LA3      -0.099000
     12 C12         -5.4120    -1.0090    -1.5890 ca         1 LA3      -0.094000
     13 C13         -4.7760    -1.5550     0.6680 ca         1 LA3       0.051100
     14 O14         -5.2220    -2.3280     1.6870 os         1 LA3      -0.345100
     15 O15         -6.6570    -2.5050    -0.0810 os         1 LA3      -0.341100
     16 C16         -6.5230    -2.7620     1.3100 c5         1 LA3       0.372600
     17 C17          2.6090     2.1760    -0.1590 c3         1 LA3      -0.130700
     18 C18          2.5920     0.7390    -0.6490 c          1 LA3       0.602100
     19 C19          3.9930     2.7910    -0.3520 c3         1 LA3      -0.151400
     20 C20          4.0690     4.1790     0.2420 c          1 LA3       0.598100
     21 O21          3.7110     4.4360     1.3780 o          1 LA3      -0.573100
     22 N22          4.5470     5.1010    -0.6140 ns         1 LA3      -0.386400
     23 O23          4.8590     6.3480    -0.1650 oh         1 LA3      -0.425100
     24 O24          3.0710     0.4200    -1.7290 o          1 LA3      -0.617100
     25 N25          1.9730    -0.1270     0.1670 ns         1 LA3      -0.477900
     26 C26          1.6370    -1.4740    -0.2020 c5         1 LA3       0.161000
     27 C27          2.5900    -2.5460     0.2670 ca         1 LA3      -0.097300
     28 C28          0.2950    -1.9310     0.4000 c5         1 LA3       0.150300
     29 O29          0.2470    -1.4330     1.7190 oh         1 LA3      -0.662000
     30 C30          0.4060    -3.4620     0.3810 c5         1 LA3      -0.064100
     31 C31          3.9280    -4.7960     1.1400 ca         1 LA3      -0.108000
     32 C32          3.9690    -2.5070     0.3690 ca         1 LA3      -0.074000
     33 C33          1.8770    -3.6950     0.5920 ca         1 LA3      -0.080300
     34 C34          2.5400    -4.8280     1.0320 ca         1 LA3      -0.097000
     35 C35          4.6380    -3.6450     0.8110 ca         1 LA3      -0.114000
     36 H1          -1.7450     0.1900    -2.7340 ha         1 LA3       0.116500
     37 H2          -0.2210     2.8190     1.1460 ha         1 LA3       0.122000
     38 H4           0.3020     1.5180    -2.8930 ha         1 LA3       0.122000
     39 H6          -2.2730     1.5060     1.3090 ha         1 LA3       0.116500
     40 H8           1.8510     3.0880    -1.9690 hc         1 LA3       0.060700
     41 H8A          1.4420     3.9600    -0.5000 hc         1 LA3       0.060700
     42 H10         -2.9600    -0.7380     1.4520 ha         1 LA3       0.128000
     43 H11         -4.0640     0.3280    -2.5720 ha         1 LA3       0.124000
     44 H12         -6.0860    -1.0910    -2.4300 ha         1 LA3       0.137000
     45 H16         -6.6260    -3.8300     1.5010 h2         1 LA3       0.066700
     46 H16A        -7.2790    -2.1970     1.8670 h2         1 LA3       0.066700
     47 H17          2.3600     2.2030     0.9060 hc         1 LA3       0.080700
     48 H19          4.7440     2.1840     0.1630 hc         1 LA3       0.076700
     49 H19A         4.2570     2.7890    -1.4110 hc         1 LA3       0.076700
     50 HN22         4.9860     4.8450    -1.4870 hn         1 LA3       0.335500
     51 HO23         4.1150     6.9140    -0.4100 ho         1 LA3       0.446000
     52 HN25         1.5820     0.2100     1.0330 hn         1 LA3       0.336500
     53 H26          1.5540    -1.5220    -1.2930 h1         1 LA3       0.086700
     54 H28         -0.5490    -1.5620    -0.1920 h1         1 LA3       0.053700
     55 HO29        -0.6350    -1.5760     2.0740 ho         1 LA3       0.447000
     56 H30         -0.2320    -3.9370     1.1300 hc         1 LA3       0.060200
     57 H30A         0.0940    -3.8480    -0.5950 hc         1 LA3       0.060200
     58 H31          4.4590    -5.6720     1.4900 ha         1 LA3       0.111000
     59 H32          4.5220    -1.6110     0.1160 ha         1 LA3       0.122000
     60 H34          1.9940    -5.7240     1.3000 ha         1 LA3       0.112000
     61 H35          5.7160    -3.6340     0.9040 ha         1 LA3       0.112000
@<TRIPOS>BOND
     1     1     3 ar  
     2     1     4 ar  
     3     1    36 1   
     4     2     5 ar  
     5     2     6 ar  
     6     2    37 1   
     7     3     6 ar  
     8     3     7 1   
     9     4     5 ar  
    10     4    38 1   
    11     5     8 1   
    12     6    39 1   
    13     7    10 ar  
    14     7    11 ar  
    15     8    17 1   
    16     8    40 1   
    17     8    41 1   
    18     9    12 ar  
    19     9    13 ar  
    20     9    15 1   
    21    10    13 ar  
    22    10    42 1   
    23    11    12 ar  
    24    11    43 1   
    25    12    44 1   
    26    13    14 1   
    27    14    16 1   
    28    15    16 1   
    29    16    45 1   
    30    16    46 1   
    31    17    18 1   
    32    17    19 1   
    33    17    47 1   
    34    18    24 2   
    35    18    25 1   
    36    19    20 1   
    37    19    48 1   
    38    19    49 1   
    39    20    21 2   
    40    20    22 1   
    41    22    23 1   
    42    22    50 1   
    43    23    51 1   
    44    25    26 1   
    45    25    52 1   
    46    26    27 1   
    47    26    28 1   
    48    26    53 1   
    49    27    32 ar  
    50    27    33 ar  
    51    28    29 1   
    52    28    30 1   
    53    28    54 1   
    54    29    55 1   
    55    30    33 1   
    56    30    56 1   
    57    30    57 1   
    58    31    34 ar  
    59    31    35 ar  
    60    31    58 1   
    61    32    35 ar  
    62    32    59 1   
    63    33    34 ar  
    64    34    60 1   
    65    35    61 1   
@<TRIPOS>SUBSTRUCTURE
     1 LA3         1 TEMP              0 ****  ****    0 ROOT
