@<TRIPOS>MOLECULE
LA9
   61    61     1     0     0
SMALL
No Charge or Current Charge


@<TRIPOS>ATOM
      1 C28          7.0570     1.5060    -0.7640 c          1 LA9       0.600100
      2 O30          7.4350     0.5310    -1.3970 o          1 LA9      -0.622100
      3 C29          7.9020     2.7680    -0.6240 c3         1 LA9      -0.175100
      4 N27          5.8370     1.5620    -0.1300 ns         1 LA9      -0.471900
      5 C22          4.8310     0.4750    -0.0930 c3         1 LA9       0.019700
      6 C20          3.4110     1.0530    -0.3710 c          1 LA9       0.595100
      7 O21          3.1480     2.2500    -0.2980 o          1 LA9      -0.619100
      8 C23          4.8720    -0.2710     1.2730 c3         1 LA9      -0.104400
      9 C24          6.1740    -1.0660     1.5770 c3         1 LA9      -0.051700
     10 C25          6.1890    -1.5580     3.0430 c3         1 LA9      -0.088600
     11 C26          6.3870    -2.2520     0.6060 c3         1 LA9      -0.088600
     12 N19          2.4560     0.1090    -0.7120 ns         1 LA9      -0.450900
     13 C17          1.0250     0.3960    -1.0300 c3         1 LA9      -0.250300
     14 C18          0.8750     0.8020    -2.5150 c3         1 LA9      -0.062100
     15 P14         -0.1820    -0.9400    -0.4920 p5         1 LA9       1.381000
     16 O16         -0.0360    -2.1430    -1.3710 o          1 LA9      -0.813000
     17 C13         -1.8460    -0.1510    -0.7250 c3         1 LA9      -0.401400
     18 C04         -3.0520    -0.8490    -0.0070 c3         1 LA9      -0.158700
     19 C05         -4.3640    -0.0390    -0.2000 c3         1 LA9      -0.036400
     20 C06         -5.5740    -0.5930     0.5870 c3         1 LA9      -0.047100
     21 C07         -6.8120     0.2790     0.4240 ca         1 LA9      -0.031300
     22 C08         -7.6850     0.0760    -0.6630 ca         1 LA9      -0.114500
     23 C09         -8.8260     0.8820    -0.8170 ca         1 LA9      -0.125000
     24 C10         -9.1020     1.8960     0.1150 ca         1 LA9      -0.149000
     25 C11         -8.2350     2.1050     1.2000 ca         1 LA9      -0.125000
     26 C12         -7.0930     1.2990     1.3540 ca         1 LA9      -0.114500
     27 C02         -3.2260    -2.3440    -0.4180 c          1 LA9       0.722000
     28 O01         -3.1090    -3.1970     0.4490 o          1 LA9      -0.745000
     29 O03         -3.5170    -2.6060    -1.5770 o          1 LA9      -0.745000
     30 O15          0.0360    -1.2540     0.9560 o          1 LA9      -0.813000
     31 H29          8.0350     2.9920     0.4400 hc         1 LA9       0.045700
     32 H29A         8.8630     2.6950    -1.1460 hc         1 LA9       0.045700
     33 H29B         7.3190     3.6290    -0.9710 hc         1 LA9       0.045700
     34 HN27         5.6070     2.4370     0.3270 hn         1 LA9       0.311500
     35 H22          5.0370    -0.2350    -0.9040 h1         1 LA9       0.064700
     36 H23          4.7090     0.4680     2.0690 hc         1 LA9       0.097700
     37 H23A         4.0240    -0.9650     1.3320 hc         1 LA9       0.097700
     38 H24          7.0260    -0.3860     1.4640 hc         1 LA9       0.016700
     39 H25          5.3590    -2.2480     3.2330 hc         1 LA9       0.030200
     40 H25A         7.1280    -2.0790     3.2670 hc         1 LA9       0.030200
     41 H25B         6.1000    -0.7130     3.7370 hc         1 LA9       0.030200
     42 H26          5.5510    -2.9590     0.6630 hc         1 LA9       0.030200
     43 H26A         6.4770    -1.9090    -0.4310 hc         1 LA9       0.030200
     44 H26B         7.3080    -2.7930     0.8550 hc         1 LA9       0.030200
     45 HN19         2.7730    -0.8560    -0.7450 hn         1 LA9       0.302500
     46 H17          0.7130     1.2490    -0.4160 h1         1 LA9       0.068700
     47 H18          1.1250    -0.0380    -3.1750 hc         1 LA9       0.019700
     48 H18A        -0.1500     1.1190    -2.7340 hc         1 LA9       0.019700
     49 H18B         1.5420     1.6380    -2.7570 hc         1 LA9       0.019700
     50 H13         -2.0330    -0.1070    -1.8030 hc         1 LA9       0.024700
     51 H13A        -1.7530     0.8810    -0.3680 hc         1 LA9       0.024700
     52 H04         -2.8270    -0.8380     1.0670 hc         1 LA9       0.047700
     53 H05         -4.1900     0.9970     0.1170 hc         1 LA9       0.014700
     54 H05A        -4.6170    -0.0010    -1.2660 hc         1 LA9       0.014700
     55 H06         -5.7940    -1.6130     0.2520 hc         1 LA9       0.061700
     56 H06A        -5.3070    -0.6710     1.6490 hc         1 LA9       0.061700
     57 H08         -7.4760    -0.7060    -1.3900 ha         1 LA9       0.119000
     58 H09         -9.4960     0.7200    -1.6580 ha         1 LA9       0.088500
     59 H10         -9.9850     2.5190    -0.0040 ha         1 LA9       0.084000
     60 H11         -8.4460     2.8910     1.9220 ha         1 LA9       0.088500
     61 H12         -6.4240     1.4690     2.1950 ha         1 LA9       0.119000
@<TRIPOS>BOND
     1     1     2 2   
     2     1     3 1   
     3     1     4 1   
     4     3    31 1   
     5     3    32 1   
     6     3    33 1   
     7     4     5 1   
     8     4    34 1   
     9     5     6 1   
    10     5     8 1   
    11     5    35 1   
    12     6     7 2   
    13     6    12 1   
    14     8     9 1   
    15     8    36 1   
    16     8    37 1   
    17     9    10 1   
    18     9    11 1   
    19     9    38 1   
    20    10    39 1   
    21    10    40 1   
    22    10    41 1   
    23    11    42 1   
    24    11    43 1   
    25    11    44 1   
    26    12    13 1   
    27    12    45 1   
    28    13    14 1   
    29    13    15 1   
    30    13    46 1   
    31    14    47 1   
    32    14    48 1   
    33    14    49 1   
    34    15    16 1   
    35    15    17 1   
    36    15    30 1   
    37    17    18 1   
    38    17    50 1   
    39    17    51 1   
    40    18    19 1   
    41    18    27 1   
    42    18    52 1   
    43    19    20 1   
    44    19    53 1   
    45    19    54 1   
    46    20    21 1   
    47    20    55 1   
    48    20    56 1   
    49    21    22 ar  
    50    21    26 ar  
    51    22    23 ar  
    52    22    57 1   
    53    23    24 ar  
    54    23    58 1   
    55    24    25 ar  
    56    24    59 1   
    57    25    26 ar  
    58    25    60 1   
    59    26    61 1   
    60    27    28 1   
    61    27    29 1   
@<TRIPOS>SUBSTRUCTURE
     1 LA9         1 TEMP              0 ****  ****    0 ROOT
