@<TRIPOS>MOLECULE
LA9
   61    61     1     0     0
SMALL
abcg2


@<TRIPOS>ATOM
      1 C28          6.3420     2.0530    -0.4910 c          1 LA9       0.600100
      2 O30          6.3060     1.9560    -1.7100 o          1 LA9      -0.622100
      3 C29          7.2540     3.0290     0.2070 c3         1 LA9      -0.175100
      4 N27          5.5870     1.2840     0.3130 ns         1 LA9      -0.471900
      5 C22          4.5960     0.3830    -0.2050 c3         1 LA9       0.019700
      6 C20          3.4110     1.1530    -0.7970 c          1 LA9       0.595100
      7 O21          3.1830     2.3140    -0.5040 o          1 LA9      -0.619100
      8 C23          4.0830    -0.5510     0.8960 c3         1 LA9      -0.104400
      9 C24          5.1620    -1.3660     1.6090 c3         1 LA9      -0.051700
     10 C25          4.5050    -2.2630     2.6530 c3         1 LA9      -0.088600
     11 C26          5.9960    -2.1930     0.6350 c3         1 LA9      -0.088600
     12 N19          2.6630     0.4210    -1.6440 ns         1 LA9      -0.450900
     13 C17          1.2550     0.6860    -1.8990 c3         1 LA9      -0.250300
     14 C18          0.8870     0.2690    -3.3130 c3         1 LA9      -0.062100
     15 P14          0.3450    -0.2590    -0.5680 p5         1 LA9       1.381000
     16 O16          0.6860    -1.7200    -0.7910 o          1 LA9      -0.813000
     17 C13         -1.4250     0.0610    -0.9390 c3         1 LA9      -0.401400
     18 C04         -2.3570    -0.3590     0.2000 c3         1 LA9      -0.158700
     19 C05         -3.7840     0.1130    -0.0820 c3         1 LA9      -0.036400
     20 C06         -4.7620    -0.1870     1.0580 c3         1 LA9      -0.047100
     21 C07         -6.1400     0.3330     0.7650 ca         1 LA9      -0.031300
     22 C08         -7.0350    -0.4160     0.0020 ca         1 LA9      -0.114500
     23 C09         -8.2940     0.0760    -0.3120 ca         1 LA9      -0.125000
     24 C10         -8.6850     1.3320     0.1350 ca         1 LA9      -0.149000
     25 C11         -7.8040     2.0890     0.8970 ca         1 LA9      -0.125000
     26 C12         -6.5450     1.5920     1.2070 ca         1 LA9      -0.114500
     27 C02         -2.3350    -1.8870     0.4050 c          1 LA9       0.722000
     28 O01         -1.9820    -2.3180     1.5210 o          1 LA9      -0.745000
     29 O03         -2.7110    -2.5800    -0.5650 o          1 LA9      -0.745000
     30 O15          0.6930     0.3870     0.7570 o          1 LA9      -0.813000
     31 H29          7.2030     2.9720     1.2930 hc         1 LA9       0.045700
     32 H29A         8.2840     2.8490    -0.1000 hc         1 LA9       0.045700
     33 H29B         6.9980     4.0430    -0.0970 hc         1 LA9       0.045700
     34 HN27         5.5820     1.4770     1.3020 hn         1 LA9       0.311500
     35 H22          5.0510    -0.2190    -0.9970 h1         1 LA9       0.064700
     36 H23          3.5160     0.0340     1.6260 hc         1 LA9       0.097700
     37 H23A         3.3560    -1.2350     0.4480 hc         1 LA9       0.097700
     38 H24          5.8350    -0.6800     2.1350 hc         1 LA9       0.016700
     39 H25          3.8410    -2.9910     2.1790 hc         1 LA9       0.030200
     40 H25A         5.2500    -2.8170     3.2260 hc         1 LA9       0.030200
     41 H25B         3.9070    -1.6830     3.3590 hc         1 LA9       0.030200
     42 H26          5.3580    -2.8380     0.0270 hc         1 LA9       0.030200
     43 H26A         6.5790    -1.5660    -0.0410 hc         1 LA9       0.030200
     44 H26B         6.6990    -2.8320     1.1710 hc         1 LA9       0.030200
     45 HN19         2.9140    -0.5540    -1.7330 hn         1 LA9       0.302500
     46 H17          1.0860     1.7560    -1.7750 h1         1 LA9       0.068700
     47 H18          1.0400    -0.8020    -3.4580 hc         1 LA9       0.019700
     48 H18A        -0.1620     0.4830    -3.5190 hc         1 LA9       0.019700
     49 H18B         1.4860     0.8020    -4.0530 hc         1 LA9       0.019700
     50 H13         -1.7200    -0.4540    -1.8570 hc         1 LA9       0.024700
     51 H13A        -1.5430     1.1340    -1.1310 hc         1 LA9       0.024700
     52 H04         -2.0130     0.1250     1.1200 hc         1 LA9       0.047700
     53 H05         -3.7790     1.1930    -0.2660 hc         1 LA9       0.014700
     54 H05A        -4.1460    -0.3550    -1.0020 hc         1 LA9       0.014700
     55 H06         -4.8080    -1.2660     1.2260 hc         1 LA9       0.061700
     56 H06A        -4.3840     0.2570     1.9820 hc         1 LA9       0.061700
     57 H08         -6.7420    -1.3990    -0.3500 ha         1 LA9       0.119000
     58 H09         -8.9740    -0.5240    -0.9050 ha         1 LA9       0.088500
     59 H10         -9.6680     1.7150    -0.1060 ha         1 LA9       0.084000
     60 H11         -8.0980     3.0680     1.2540 ha         1 LA9       0.088500
     61 H12         -5.8670     2.1880     1.8060 ha         1 LA9       0.119000
@<TRIPOS>BOND
     1     1     2 2   
     2     1     3 1   
     3     1     4 1   
     4     3    31 1   
     5     3    32 1   
     6     3    33 1   
     7     4     5 1   
     8     4    34 1   
     9     5     6 1   
    10     5     8 1   
    11     5    35 1   
    12     6     7 2   
    13     6    12 1   
    14     8     9 1   
    15     8    36 1   
    16     8    37 1   
    17     9    10 1   
    18     9    11 1   
    19     9    38 1   
    20    10    39 1   
    21    10    40 1   
    22    10    41 1   
    23    11    42 1   
    24    11    43 1   
    25    11    44 1   
    26    12    13 1   
    27    12    45 1   
    28    13    14 1   
    29    13    15 1   
    30    13    46 1   
    31    14    47 1   
    32    14    48 1   
    33    14    49 1   
    34    15    16 1   
    35    15    17 1   
    36    15    30 1   
    37    17    18 1   
    38    17    50 1   
    39    17    51 1   
    40    18    19 1   
    41    18    27 1   
    42    18    52 1   
    43    19    20 1   
    44    19    53 1   
    45    19    54 1   
    46    20    21 1   
    47    20    55 1   
    48    20    56 1   
    49    21    22 ar  
    50    21    26 ar  
    51    22    23 ar  
    52    22    57 1   
    53    23    24 ar  
    54    23    58 1   
    55    24    25 ar  
    56    24    59 1   
    57    25    26 ar  
    58    25    60 1   
    59    26    61 1   
    60    27    28 1   
    61    27    29 1   
@<TRIPOS>SUBSTRUCTURE
     1 LA9         1 TEMP              0 ****  ****    0 ROOT
