@<TRIPOS>MOLECULE
LAB
   56    58     1     0     0
SMALL
bcc


@<TRIPOS>ATOM
      1 O5          -6.0740    -1.8230    -0.3600 o          1 LAB      -0.584500
      2 C18         -5.2580    -0.9580    -0.5850 c          1 LAB       0.759100
      3 N1          -3.9690    -1.1310    -0.9350 ns         1 LAB      -0.586900
      4 C16         -3.0880     0.0090    -0.9330 c5         1 LAB       0.127700
      5 C17         -3.9940     1.2270    -1.1670 c5         1 LAB       0.004700
      6 S1          -5.6330     0.7800    -0.5310 ss         1 LAB      -0.265700
      7 C15         -2.2500     0.1090     0.3620 c6         1 LAB       0.342600
      8 O4          -3.1580     0.2200     1.4060 oh         1 LAB      -0.574800
      9 C14         -1.3480    -1.1220     0.5650 c6         1 LAB      -0.168400
     10 C13         -0.2430    -1.2040    -0.4880 c6         1 LAB       0.172100
     11 O2           0.7710    -2.1840    -0.1890 os         1 LAB      -0.430900
     12 C12          0.3440     0.1850    -0.7570 c6         1 LAB      -0.142400
     13 C11         -0.0870     1.1800     0.3060 c6         1 LAB       0.152100
     14 O3          -1.5040     1.3040     0.2520 os         1 LAB      -0.445600
     15 C10          0.5780     2.5350     0.1200 c3         1 LAB      -0.067400
     16 C9           2.0660     2.4170     0.5110 c3         1 LAB      -0.079400
     17 C8           3.1190     2.9450    -0.4800 c3         1 LAB      -0.022500
     18 C20          2.9390     2.4890    -1.9300 c3         1 LAB      -0.084100
     19 C7           4.5000     2.6280     0.0580 c2         1 LAB      -0.158200
     20 C6           5.0950     1.4410     0.1940 c2         1 LAB      -0.166200
     21 C5           4.5940     0.0750    -0.1750 c3         1 LAB      -0.037200
     22 C4           4.5790    -0.8920     1.0240 c3         1 LAB      -0.059200
     23 C3           4.1920    -2.2810     0.5860 c2         1 LAB      -0.023400
     24 C19          5.3420    -3.1600     0.2030 c3         1 LAB      -0.072900
     25 C2           2.9350    -2.7250     0.4310 ce         1 LAB      -0.243200
     26 C1           1.7330    -1.9200     0.7020 c          1 LAB       0.658300
     27 O1           1.6200    -1.1050     1.5860 o          1 LAB      -0.539000
     28 HN1         -3.6080    -2.0720    -0.9890 hn         1 LAB       0.327500
     29 H16         -2.3970    -0.0700    -1.7750 h1         1 LAB       0.072700
     30 H171        -3.6310     2.1220    -0.6680 h1         1 LAB       0.089700
     31 H172        -4.0770     1.4370    -2.2320 h1         1 LAB       0.089700
     32 HO4         -2.6910     0.1540     2.2480 ho         1 LAB       0.417000
     33 H141        -0.9160    -1.0640     1.5660 hc         1 LAB       0.076700
     34 H142        -1.9610    -2.0250     0.5530 hc         1 LAB       0.076700
     35 H13         -0.6620    -1.5980    -1.4140 h1         1 LAB       0.073700
     36 H121         1.4280     0.1420    -0.8480 hc         1 LAB       0.065700
     37 H122        -0.0090     0.5500    -1.7270 hc         1 LAB       0.065700
     38 H11          0.2000     0.8140     1.2960 h1         1 LAB       0.063700
     39 H101         0.4450     2.8750    -0.9100 hc         1 LAB       0.055200
     40 H102         0.0820     3.2730     0.7540 hc         1 LAB       0.055200
     41 H91          2.2240     2.9340     1.4600 hc         1 LAB       0.049200
     42 H92          2.2980     1.3720     0.7290 hc         1 LAB       0.049200
     43 H8           3.0300     4.0360    -0.4910 hc         1 LAB       0.046700
     44 H201         1.9930     2.8340    -2.3470 hc         1 LAB       0.033700
     45 H202         3.7340     2.9010    -2.5530 hc         1 LAB       0.033700
     46 H203         2.9700     1.4060    -2.0440 hc         1 LAB       0.033700
     47 H7           5.0710     3.4880     0.3960 ha         1 LAB       0.118000
     48 H6           6.0940     1.4430     0.6240 ha         1 LAB       0.114000
     49 H51          3.5980     0.1140    -0.6140 hc         1 LAB       0.044700
     50 H52          5.2470    -0.3370    -0.9520 hc         1 LAB       0.044700
     51 H41          5.5810    -0.9270     1.4620 hc         1 LAB       0.066200
     52 H42          3.9130    -0.5060     1.7910 hc         1 LAB       0.066200
     53 H191         5.9680    -3.3560     1.0770 hc         1 LAB       0.050700
     54 H192         5.0220    -4.1130    -0.2140 hc         1 LAB       0.050700
     55 H193         5.9830    -2.6630    -0.5300 hc         1 LAB       0.050700
     56 H2           2.7700    -3.7020    -0.0090 ha         1 LAB       0.151000
@<TRIPOS>BOND
     1     1     2 2   
     2     2     3 1   
     3     2     6 1   
     4     3     4 1   
     5     3    28 1   
     6     4     5 1   
     7     4     7 1   
     8     4    29 1   
     9     5     6 1   
    10     5    30 1   
    11     5    31 1   
    12     7     8 1   
    13     7     9 1   
    14     7    14 1   
    15     8    32 1   
    16     9    10 1   
    17     9    33 1   
    18     9    34 1   
    19    10    11 1   
    20    10    12 1   
    21    10    35 1   
    22    11    26 1   
    23    12    13 1   
    24    12    36 1   
    25    12    37 1   
    26    13    14 1   
    27    13    15 1   
    28    13    38 1   
    29    15    16 1   
    30    15    39 1   
    31    15    40 1   
    32    16    17 1   
    33    16    41 1   
    34    16    42 1   
    35    17    18 1   
    36    17    19 1   
    37    17    43 1   
    38    18    44 1   
    39    18    45 1   
    40    18    46 1   
    41    19    20 2   
    42    19    47 1   
    43    20    21 1   
    44    20    48 1   
    45    21    22 1   
    46    21    49 1   
    47    21    50 1   
    48    22    23 1   
    49    22    51 1   
    50    22    52 1   
    51    23    24 1   
    52    23    25 2   
    53    24    53 1   
    54    24    54 1   
    55    24    55 1   
    56    25    26 1   
    57    25    56 1   
    58    26    27 2   
@<TRIPOS>SUBSTRUCTURE
     1 LAB         1 TEMP              0 ****  ****    0 ROOT
