@<TRIPOS>MOLECULE
LAB
   56    58     1     0     0
SMALL
No Charge or Current Charge


@<TRIPOS>ATOM
      1 O5          -6.3180    -1.4490     0.8210 o          1 LAB      -0.509000
      2 C18         -5.5340    -0.7190     0.2410 c          1 LAB       0.616600
      3 N1          -4.4610    -1.1750    -0.4830 ns         1 LAB      -0.519900
      4 C16         -3.4520    -0.1720    -0.8880 c5         1 LAB       0.127700
      5 C17         -4.3260     1.0960    -1.1290 c5         1 LAB       0.052600
      6 S1          -5.6310     1.0780     0.1790 ss         1 LAB      -0.313600
      7 C15         -2.2610     0.0120     0.1340 c6         1 LAB       0.389000
      8 O4          -2.7170     0.2790     1.4460 oh         1 LAB      -0.637000
      9 C14         -1.3600    -1.2790     0.1880 c6         1 LAB      -0.168400
     10 C13         -0.2100    -1.2980    -0.8630 c6         1 LAB       0.195300
     11 O2           0.8450    -2.2360    -0.5210 os         1 LAB      -0.454100
     12 C12          0.3900     0.1130    -1.1140 c6         1 LAB      -0.142400
     13 C11         -0.1020     1.1070    -0.0430 c6         1 LAB       0.175300
     14 O3          -1.5210     1.2010    -0.2290 os         1 LAB      -0.492000
     15 C10          0.5880     2.4930    -0.1420 c3         1 LAB      -0.067400
     16 C9           2.0080     2.4390     0.5050 c3         1 LAB      -0.079400
     17 C8           3.2170     3.0300    -0.2700 c3         1 LAB      -0.022500
     18 C20          3.3010     2.6610    -1.7740 c3         1 LAB      -0.084100
     19 C7           4.5120     2.6900     0.4700 c2         1 LAB      -0.208200
     20 C6           5.1260     1.4950     0.6250 c2         1 LAB      -0.216200
     21 C5           4.7180     0.1270     0.0860 c3         1 LAB      -0.037200
     22 C4           4.7010    -1.0010     1.1500 c3         1 LAB      -0.059200
     23 C3           4.3000    -2.3450     0.5330 c2         1 LAB      -0.023400
     24 C19          5.5090    -3.2000     0.1930 c3         1 LAB      -0.072900
     25 C2           3.0400    -2.7200     0.1850 ce         1 LAB      -0.293200
     26 C1           1.7910    -1.9540     0.4370 c          1 LAB       0.609300
     27 O1           1.6520    -1.1380     1.3330 o          1 LAB      -0.490000
     28 HN1         -4.3220    -2.1770    -0.5180 hn         1 LAB       0.327500
     29 H16         -2.9890    -0.4620    -1.8400 h1         1 LAB       0.072700
     30 H171        -3.7520     2.0310    -1.1070 h1         1 LAB       0.089700
     31 H172        -4.8190     1.0300    -2.1080 h1         1 LAB       0.089700
     32 HO4         -2.6750     1.2540     1.5060 ho         1 LAB       0.456000
     33 H141        -0.9310    -1.3710     1.1940 hc         1 LAB       0.076700
     34 H142        -1.9740    -2.1800     0.0680 hc         1 LAB       0.076700
     35 H13         -0.6440    -1.6410    -1.8150 h1         1 LAB       0.073700
     36 H121         1.4840     0.0840    -1.1610 hc         1 LAB       0.065700
     37 H122         0.0680     0.4690    -2.1020 hc         1 LAB       0.065700
     38 H11          0.0870     0.7340     0.9740 h1         1 LAB       0.063700
     39 H101         0.6280     2.8210    -1.1850 hc         1 LAB       0.055200
     40 H102        -0.0090     3.2430     0.3900 hc         1 LAB       0.055200
     41 H91          1.9540     2.9420     1.4790 hc         1 LAB       0.049200
     42 H92          2.2470     1.4010     0.7540 hc         1 LAB       0.049200
     43 H8           3.0970     4.1210    -0.2430 hc         1 LAB       0.046700
     44 H201         2.5200     3.1720    -2.3480 hc         1 LAB       0.033700
     45 H202         4.2650     2.9780    -2.1890 hc         1 LAB       0.033700
     46 H203         3.1940     1.5860    -1.9470 hc         1 LAB       0.033700
     47 H7           4.9690     3.5680     0.9310 ha         1 LAB       0.168000
     48 H6           6.0550     1.4610     1.1980 ha         1 LAB       0.164000
     49 H51          3.7330     0.1600    -0.3830 hc         1 LAB       0.044700
     50 H52          5.4160    -0.1610    -0.7090 hc         1 LAB       0.044700
     51 H41          5.6940    -1.0680     1.6110 hc         1 LAB       0.066200
     52 H42          4.0260    -0.7220     1.9660 hc         1 LAB       0.066200
     53 H191         6.0900    -3.4390     1.0920 hc         1 LAB       0.050700
     54 H192         5.2180    -4.1510    -0.2680 hc         1 LAB       0.050700
     55 H193         6.1740    -2.6840    -0.5100 hc         1 LAB       0.050700
     56 H2           2.8860    -3.6330    -0.3850 ha         1 LAB       0.201000
@<TRIPOS>BOND
     1     1     2 2   
     2     2     3 1   
     3     2     6 1   
     4     3     4 1   
     5     3    28 1   
     6     4     5 1   
     7     4     7 1   
     8     4    29 1   
     9     5     6 1   
    10     5    30 1   
    11     5    31 1   
    12     7     8 1   
    13     7     9 1   
    14     7    14 1   
    15     8    32 1   
    16     9    10 1   
    17     9    33 1   
    18     9    34 1   
    19    10    11 1   
    20    10    12 1   
    21    10    35 1   
    22    11    26 1   
    23    12    13 1   
    24    12    36 1   
    25    12    37 1   
    26    13    14 1   
    27    13    15 1   
    28    13    38 1   
    29    15    16 1   
    30    15    39 1   
    31    15    40 1   
    32    16    17 1   
    33    16    41 1   
    34    16    42 1   
    35    17    18 1   
    36    17    19 1   
    37    17    43 1   
    38    18    44 1   
    39    18    45 1   
    40    18    46 1   
    41    19    20 2   
    42    19    47 1   
    43    20    21 1   
    44    20    48 1   
    45    21    22 1   
    46    21    49 1   
    47    21    50 1   
    48    22    23 1   
    49    22    51 1   
    50    22    52 1   
    51    23    24 1   
    52    23    25 2   
    53    24    53 1   
    54    24    54 1   
    55    24    55 1   
    56    25    26 1   
    57    25    56 1   
    58    26    27 2   
@<TRIPOS>SUBSTRUCTURE
     1 LAB         1 TEMP              0 ****  ****    0 ROOT
