@<TRIPOS>MOLECULE
LAC
   11    10     1     0     0
SMALL
abcg2


@<TRIPOS>ATOM
      1 C1          -0.1340    -0.0220    -0.6710 c          1 LAC       0.691000
      2 C2           0.2280    -0.3300     0.7990 c3         1 LAC       0.017300
      3 C3           1.4640     0.4450     1.2360 c3         1 LAC      -0.075100
      4 O1          -1.2830     0.4480    -0.8410 o          1 LAC      -0.726500
      5 O2          -0.8750    -0.0330     1.6230 oh         1 LAC      -0.718000
      6 OXT          0.7220    -0.2560    -1.5380 o          1 LAC      -0.726500
      7 H2           0.4580    -1.4040     0.8640 h1         1 LAC       0.020700
      8 H31          1.7060     0.2390     2.2800 hc         1 LAC       0.015367
      9 H32          2.3260     0.1630     0.6320 hc         1 LAC       0.015367
     10 H33          1.3150     1.5210     1.1300 hc         1 LAC       0.015367
     11 HO2         -1.5230     0.3050     0.9770 ho         1 LAC       0.472000
@<TRIPOS>BOND
     1     1     2 1   
     2     1     4 1   
     3     1     6 1   
     4     2     3 1   
     5     2     5 1   
     6     2     7 1   
     7     3     8 1   
     8     3     9 1   
     9     3    10 1   
    10     5    11 1   
@<TRIPOS>SUBSTRUCTURE
     1 LAC         1 TEMP              0 ****  ****    0 ROOT
