@<TRIPOS>MOLECULE
LAE
   36    36     1     0     0
SMALL
No Charge or Current Charge


@<TRIPOS>ATOM
      1 C1          -0.2500     0.4410    -2.3580 c5         1 LAE      -0.005300
      2 C2          -1.2800    -0.0370    -3.4070 c          1 LAE       0.629100
      3 O3          -0.9960     0.5740    -4.5980 os         1 LAE      -0.426100
      4 C4           0.0690     1.5370    -4.4140 c5         1 LAE       0.157600
      5 C5           0.9080     0.9810    -3.2350 c5         1 LAE      -0.131400
      6 O10         -2.1790    -0.8530    -3.2620 o          1 LAE      -0.459000
      7 N11          0.3090    -0.7320    -1.6380 ns         1 LAE      -0.485900
      8 C13          1.0010    -0.5180    -0.4630 c          1 LAE       0.629100
      9 C14          1.5400    -1.7650     0.1950 c3         1 LAE      -0.275400
     10 C15          0.5410    -2.1740     1.2640 c          1 LAE       0.574100
     11 C18          0.8790    -1.8460     2.7290 c3         1 LAE      -0.176400
     12 C19          0.1010    -0.6070     3.2340 c3         1 LAE      -0.066400
     13 C22          0.3920    -0.2780     4.7150 c3         1 LAE      -0.077400
     14 C25         -0.3820     0.9580     5.2220 c3         1 LAE      -0.075400
     15 C28         -0.0920     1.2870     6.6990 c3         1 LAE      -0.089100
     16 O35          1.1690     0.5910     0.0200 o          1 LAE      -0.577100
     17 O36         -0.4850    -2.7690     0.9690 o          1 LAE      -0.482100
     18 H11         -0.7170     1.2060    -1.7230 h1         1 LAE       0.117700
     19 H41         -0.3770     2.5100    -4.1600 h1         1 LAE       0.066700
     20 H42          0.6460     1.6490    -5.3420 h1         1 LAE       0.066700
     21 H51          1.5090     1.7490    -2.7350 hc         1 LAE       0.068200
     22 H52          1.5850     0.1920    -3.5860 hc         1 LAE       0.068200
     23 H111         0.2030    -1.6930    -1.9480 hn         1 LAE       0.316500
     24 H141         2.5040    -1.5210     0.6520 hc         1 LAE       0.079700
     25 H142         1.5970    -2.5760    -0.5400 hc         1 LAE       0.079700
     26 H181         1.9490    -1.6330     2.8310 hc         1 LAE       0.058700
     27 H182         0.6080    -2.7060     3.3530 hc         1 LAE       0.058700
     28 H191        -0.9760    -0.7800     3.1090 hc         1 LAE       0.055200
     29 H192         0.3570     0.2630     2.6170 hc         1 LAE       0.055200
     30 H221         1.4680    -0.1050     4.8410 hc         1 LAE       0.034700
     31 H222         0.1320    -1.1450     5.3350 hc         1 LAE       0.034700
     32 H251        -1.4590     0.7890     5.1000 hc         1 LAE       0.040200
     33 H252        -0.1240     1.8280     4.6060 hc         1 LAE       0.040200
     34 H281        -0.6620     2.1700     7.0130 hc         1 LAE       0.031700
     35 H282        -0.3740     0.4480     7.3470 hc         1 LAE       0.031700
     36 H283         0.9740     1.4970     6.8480 hc         1 LAE       0.031700
@<TRIPOS>BOND
     1     1     2 1   
     2     1     5 1   
     3     1     7 1   
     4     1    18 1   
     5     2     3 1   
     6     2     6 2   
     7     3     4 1   
     8     4     5 1   
     9     4    19 1   
    10     4    20 1   
    11     5    21 1   
    12     5    22 1   
    13     7     8 1   
    14     7    23 1   
    15     8     9 1   
    16     8    16 2   
    17     9    10 1   
    18     9    24 1   
    19     9    25 1   
    20    10    11 1   
    21    10    17 2   
    22    11    12 1   
    23    11    26 1   
    24    11    27 1   
    25    12    13 1   
    26    12    28 1   
    27    12    29 1   
    28    13    14 1   
    29    13    30 1   
    30    13    31 1   
    31    14    15 1   
    32    14    32 1   
    33    14    33 1   
    34    15    34 1   
    35    15    35 1   
    36    15    36 1   
@<TRIPOS>SUBSTRUCTURE
     1 LAE         1 TEMP              0 ****  ****    0 ROOT
