@<TRIPOS>MOLECULE
LAE
   36    36     1     0     0
SMALL
bcc


@<TRIPOS>ATOM
      1 C1           0.3950     0.2580    -3.2540 c5         1 LAE      -0.005300
      2 C2          -1.0730    -0.0800    -3.4780 c          1 LAE       0.704600
      3 O3          -1.2510    -0.4680    -4.7370 os         1 LAE      -0.402900
      4 C4          -0.0030    -0.4660    -5.4590 c5         1 LAE       0.134400
      5 C5           1.0750    -0.4970    -4.3870 c5         1 LAE      -0.131400
      6 O10         -1.9700    -0.0230    -2.6860 o          1 LAE      -0.534500
      7 N11          0.8450    -0.0650    -1.9370 ns         1 LAE      -0.552900
      8 C13          1.1400     0.8550    -0.9990 c          1 LAE       0.696100
      9 C14          1.5710     0.2870     0.3330 c3         1 LAE      -0.275400
     10 C15          0.4810     0.4190     1.3800 c          1 LAE       0.574100
     11 C18          0.8920     0.0510     2.7790 c3         1 LAE      -0.176400
     12 C19         -0.2160     0.1290     3.8160 c3         1 LAE      -0.066400
     13 C22          0.2630    -0.3020     5.1970 c3         1 LAE      -0.077400
     14 C25         -0.8270    -0.2190     6.2590 c3         1 LAE      -0.075400
     15 C28         -0.3500    -0.6720     7.6320 c3         1 LAE      -0.089100
     16 O35          1.0750     2.0580    -1.1900 o          1 LAE      -0.577100
     17 O36         -0.6340     0.7790     1.0900 o          1 LAE      -0.482100
     18 H11          0.5030     1.3370    -3.4010 h1         1 LAE       0.117700
     19 H41          0.0460     0.4410    -6.0640 h1         1 LAE       0.066700
     20 H42          0.0060    -1.3310    -6.1170 h1         1 LAE       0.066700
     21 H51          2.0020    -0.0340    -4.7160 hc         1 LAE       0.068200
     22 H52          1.2900    -1.5240    -4.0840 hc         1 LAE       0.068200
     23 H111         0.9080    -1.0420    -1.6950 hn         1 LAE       0.316500
     24 H141         2.4630     0.8160     0.6760 hc         1 LAE       0.079700
     25 H142         1.8510    -0.7680     0.2710 hc         1 LAE       0.079700
     26 H181         1.7300     0.7000     3.0580 hc         1 LAE       0.058700
     27 H182         1.3230    -0.9560     2.7440 hc         1 LAE       0.058700
     28 H191        -1.0540    -0.5040     3.5100 hc         1 LAE       0.055200
     29 H192        -0.6040     1.1500     3.8670 hc         1 LAE       0.055200
     30 H221         1.1130     0.3190     5.5020 hc         1 LAE       0.034700
     31 H222         0.6430    -1.3280     5.1470 hc         1 LAE       0.034700
     32 H251        -1.6810    -0.8280     5.9470 hc         1 LAE       0.040200
     33 H252        -1.1950     0.8090     6.3190 hc         1 LAE       0.040200
     34 H281        -1.1420    -0.5940     8.3770 hc         1 LAE       0.031700
     35 H282        -0.0160    -1.7110     7.6110 hc         1 LAE       0.031700
     36 H283         0.4890    -0.0650     7.9780 hc         1 LAE       0.031700
@<TRIPOS>BOND
     1     1     2 1   
     2     1     5 1   
     3     1     7 1   
     4     1    18 1   
     5     2     3 1   
     6     2     6 2   
     7     3     4 1   
     8     4     5 1   
     9     4    19 1   
    10     4    20 1   
    11     5    21 1   
    12     5    22 1   
    13     7     8 1   
    14     7    23 1   
    15     8     9 1   
    16     8    16 2   
    17     9    10 1   
    18     9    24 1   
    19     9    25 1   
    20    10    11 1   
    21    10    17 2   
    22    11    12 1   
    23    11    26 1   
    24    11    27 1   
    25    12    13 1   
    26    12    28 1   
    27    12    29 1   
    28    13    14 1   
    29    13    30 1   
    30    13    31 1   
    31    14    15 1   
    32    14    32 1   
    33    14    33 1   
    34    15    34 1   
    35    15    35 1   
    36    15    36 1   
@<TRIPOS>SUBSTRUCTURE
     1 LAE         1 TEMP              0 ****  ****    0 ROOT
