@<TRIPOS>MOLECULE
LAF
   15    14     1     0     0
SMALL
bcc


@<TRIPOS>ATOM
      1 C4          -0.1630    -0.0270    -1.3940 c          1 LAF       0.535100
      2 C5           0.8410    -0.0140    -2.5250 c3         1 LAF       0.043900
      3 C3           0.4490    -0.0510    -0.0230 c3         1 LAF      -0.151400
      4 C2          -0.5450    -0.0180     1.1210 c3         1 LAF      -0.203400
      5 C1           0.0940    -0.0360     2.5220 c          1 LAF       0.927600
      6 O4          -1.3490    -0.0190    -1.6150 o          1 LAF      -0.514100
      7 O1           1.3380    -0.0320     2.5970 o          1 LAF      -0.844800
      8 OH1         -0.7080    -0.0490     3.4790 o          1 LAF      -0.844800
      9 F            0.2040    -0.0360    -3.7460 f          1 LAF      -0.246300
     10 H5C1         1.4590     0.8850    -2.4550 h1         1 LAF       0.053200
     11 H5C2         1.5000    -0.8830    -2.4440 h1         1 LAF       0.053200
     12 H3C1         1.1540     0.7830     0.0470 hc         1 LAF       0.063700
     13 H3C2         1.0800    -0.9460     0.0370 hc         1 LAF       0.063700
     14 H2C1        -1.2350    -0.8630     1.0460 hc         1 LAF       0.032200
     15 H2C2        -1.1750     0.8740     1.0450 hc         1 LAF       0.032200
@<TRIPOS>BOND
     1     1     2 1   
     2     1     3 1   
     3     1     6 2   
     4     2     9 1   
     5     2    10 1   
     6     2    11 1   
     7     3     4 1   
     8     3    12 1   
     9     3    13 1   
    10     4     5 1   
    11     4    14 1   
    12     4    15 1   
    13     5     7 1   
    14     5     8 1   
@<TRIPOS>SUBSTRUCTURE
     1 LAF         1 TEMP              0 ****  ****    0 ROOT
