@<TRIPOS>MOLECULE
LAF
   15    14     1     0     0
SMALL
No Charge or Current Charge


@<TRIPOS>ATOM
      1 C4          -0.1840    -0.5410    -1.4260 c          1 LAF       0.535100
      2 C5           0.7120     0.3010    -2.3610 c3         1 LAF       0.062600
      3 C3           0.3110    -0.6900     0.0230 c3         1 LAF      -0.151400
      4 C2          -0.3460     0.3520     0.9740 c3         1 LAF      -0.203400
      5 C1           0.1810     0.1850     2.4100 c          1 LAF       0.717000
      6 O4          -1.2320    -1.0640    -1.7970 o          1 LAF      -0.514100
      7 O1           1.1920     0.7940     2.7250 o          1 LAF      -0.739500
      8 OH1         -0.3980    -0.5960     3.1490 o          1 LAF      -0.739500
      9 F            0.1920     0.4610    -3.6090 f          1 LAF      -0.265000
     10 H5C1         0.8560     1.2890    -1.9080 h1         1 LAF       0.053200
     11 H5C2         1.6880    -0.1920    -2.4450 h1         1 LAF       0.053200
     12 H3C1         1.3940    -0.5220     0.0510 hc         1 LAF       0.063700
     13 H3C2         0.0730    -1.6990     0.3820 hc         1 LAF       0.063700
     14 H2C1        -1.4250     0.1520     0.9410 hc         1 LAF       0.032200
     15 H2C2        -0.0690     1.3380     0.5810 hc         1 LAF       0.032200
@<TRIPOS>BOND
     1     1     2 1   
     2     1     3 1   
     3     1     6 2   
     4     2     9 1   
     5     2    10 1   
     6     2    11 1   
     7     3     4 1   
     8     3    12 1   
     9     3    13 1   
    10     4     5 1   
    11     4    14 1   
    12     4    15 1   
    13     5     7 1   
    14     5     8 1   
@<TRIPOS>SUBSTRUCTURE
     1 LAF         1 TEMP              0 ****  ****    0 ROOT
