@<TRIPOS>MOLECULE
LAG
   67    69     1     0     0
SMALL
No Charge or Current Charge


@<TRIPOS>ATOM
      1 CA1         -5.1290    -0.4970    -1.2510 c2         1 LAG       0.555200
      2 NA1         -6.0040    -0.8140    -2.1610 n2         1 LAG      -0.439700
      3 OA7         -6.1000    -2.1950    -2.5130 oh         1 LAG      -0.529000
      4 CA2         -4.9470     0.9640    -0.7640 c6         1 LAG       0.118000
      5 OA2         -4.0040     1.6940    -1.6000 oh         1 LAG      -0.657000
      6 CA3         -4.5170     1.0140     0.7380 c6         1 LAG       0.144300
      7 OA3         -5.6260     0.6770     1.6010 oh         1 LAG      -0.716000
      8 CA4         -3.2930     0.0630     0.9940 c6         1 LAG       0.184300
      9 OA4         -2.1180     0.5170     0.2760 os         1 LAG      -0.469000
     10 CA5         -3.5980    -1.4170     0.5700 c6         1 LAG       0.220500
     11 NA5         -4.3320    -1.5020    -0.7200 nu         1 LAG      -0.867400
     12 CA6         -4.3530    -2.2360     1.6730 c3         1 LAG       0.132600
     13 OA6         -4.4870    -3.6310     1.3270 oh         1 LAG      -0.666000
     14 CB1         -1.4470     1.6660     0.8240 c6         1 LAG       0.347300
     15 CB2         -0.6390     2.4060    -0.2920 c6         1 LAG       0.126300
     16 CB3          0.5280     1.5040    -0.7790 c6         1 LAG       0.128300
     17 CB4          1.4170     1.0800     0.4360 c6         1 LAG       0.164300
     18 CB5          0.5170     0.3630     1.4840 c6         1 LAG       0.150300
     19 CB6          1.3180    -0.0550     2.7590 c3         1 LAG       0.161600
     20 OB2         -1.4650     2.7810    -1.4240 oh         1 LAG      -0.728000
     21 OB3          1.2590     2.1880    -1.8170 oh         1 LAG      -0.731000
     22 OB4          2.5190     0.2300     0.0330 os         1 LAG      -0.496000
     23 OB5         -0.5710     1.2400     1.8900 os         1 LAG      -0.455000
     24 OB6          0.4970    -0.6800     3.7680 oh         1 LAG      -0.713000
     25 CD1          3.6890     0.9160    -0.4620 c6         1 LAG       0.365300
     26 CD2          4.1130     0.4030    -1.8840 c6         1 LAG       0.116300
     27 CD3          4.6140    -1.0650    -1.7750 c6         1 LAG       0.105300
     28 CD4          5.7440    -1.1730    -0.7110 c6         1 LAG       0.151300
     29 CD5          5.2240    -0.6210     0.6540 c6         1 LAG       0.168300
     30 CD6          6.3260    -0.6390     1.7640 c3         1 LAG       0.169600
     31 OD2          3.0400     0.4880    -2.8550 oh         1 LAG      -0.727000
     32 OD3          5.0720    -1.5320    -3.0570 oh         1 LAG      -0.669000
     33 OD4          6.1780    -2.5420    -0.6210 oh         1 LAG      -0.719000
     34 OD5          4.7600     0.7500     0.4890 os         1 LAG      -0.456000
     35 OD6          5.8830    -0.0880     3.0230 oh         1 LAG      -0.719000
     36 HA7         -6.8010    -2.2450    -3.2100 ho         1 LAG       0.464000
     37 HA2         -5.9280     1.4570    -0.8370 h1         1 LAG       0.052700
     38 H8          -4.3660     1.6580    -2.5170 ho         1 LAG       0.465000
     39 HA3         -4.2090     2.0450     0.9610 h1         1 LAG       0.055700
     40 H7          -6.2120     1.4690     1.6520 ho         1 LAG       0.515000
     41 HA4         -3.0530     0.0670     2.0670 h1         1 LAG       0.073700
     42 H1          -2.6230    -1.9160     0.4600 h1         1 LAG       0.093700
     43 HA5         -4.6630    -2.4200    -1.0110 hn         1 LAG       0.498000
     44 HA61        -3.7970    -2.1370     2.6150 h1         1 LAG       0.042700
     45 HA62        -5.3460    -1.8000     1.8300 h1         1 LAG       0.042700
     46 HA6         -4.9910    -4.0630     2.0530 ho         1 LAG       0.450000
     47 HB1         -2.1820     2.3760     1.2310 h2         1 LAG       0.079700
     48 HB2         -0.2050     3.3080     0.1660 h1         1 LAG       0.090700
     49 HB3          0.0870     0.5850    -1.1970 h1         1 LAG       0.067700
     50 HB4          1.8270     1.9820     0.9150 h1         1 LAG       0.058700
     51 HB5          0.0970    -0.5490     1.0360 h1         1 LAG       0.076700
     52 HB61         2.1200    -0.7410     2.4520 h1         1 LAG       0.043200
     53 HB62         1.8010     0.8430     3.1680 h1         1 LAG       0.043200
     54 H6          -2.3060     2.2410    -1.3720 ho         1 LAG       0.542000
     55 H5           0.5760     2.7690    -2.2410 ho         1 LAG       0.525000
     56 HB6          1.0730    -0.8400     4.5520 ho         1 LAG       0.506000
     57 HD1          3.4770     1.9930    -0.5490 h2         1 LAG       0.082700
     58 HD2          4.9570     1.0310    -2.2090 h1         1 LAG       0.087700
     59 HD3          3.7680    -1.6830    -1.4380 h1         1 LAG       0.059700
     60 HD4          6.5850    -0.5410    -1.0360 h1         1 LAG       0.048700
     61 HD5          4.3860    -1.2430     1.0010 h1         1 LAG       0.077700
     62 HD61         6.6520    -1.6780     1.9070 h1         1 LAG       0.037200
     63 HD62         7.1930    -0.0770     1.3910 h1         1 LAG       0.037200
     64 H4           2.3500     1.1010    -2.4580 ho         1 LAG       0.538000
     65 H3           4.4360    -1.1430    -3.7040 ho         1 LAG       0.463000
     66 H2           6.1470    -2.8690    -1.5540 ho         1 LAG       0.525000
     67 HD6          6.6650    -0.0800     3.6230 ho         1 LAG       0.504000
@<TRIPOS>BOND
     1     1     2 2   
     2     1     4 1   
     3     1    11 1   
     4     2     3 1   
     5     3    36 1   
     6     4     5 1   
     7     4     6 1   
     8     4    37 1   
     9     5    38 1   
    10     6     7 1   
    11     6     8 1   
    12     6    39 1   
    13     7    40 1   
    14     8     9 1   
    15     8    10 1   
    16     8    41 1   
    17     9    14 1   
    18    10    11 1   
    19    10    12 1   
    20    10    42 1   
    21    11    43 1   
    22    12    13 1   
    23    12    44 1   
    24    12    45 1   
    25    13    46 1   
    26    14    15 1   
    27    14    23 1   
    28    14    47 1   
    29    15    16 1   
    30    15    20 1   
    31    15    48 1   
    32    16    17 1   
    33    16    21 1   
    34    16    49 1   
    35    17    18 1   
    36    17    22 1   
    37    17    50 1   
    38    18    19 1   
    39    18    23 1   
    40    18    51 1   
    41    19    24 1   
    42    19    52 1   
    43    19    53 1   
    44    20    54 1   
    45    21    55 1   
    46    22    25 1   
    47    24    56 1   
    48    25    26 1   
    49    25    34 1   
    50    25    57 1   
    51    26    27 1   
    52    26    31 1   
    53    26    58 1   
    54    27    28 1   
    55    27    32 1   
    56    27    59 1   
    57    28    29 1   
    58    28    33 1   
    59    28    60 1   
    60    29    30 1   
    61    29    34 1   
    62    29    61 1   
    63    30    35 1   
    64    30    62 1   
    65    30    63 1   
    66    31    64 1   
    67    32    65 1   
    68    33    66 1   
    69    35    67 1   
@<TRIPOS>SUBSTRUCTURE
     1 LAG         1 TEMP              0 ****  ****    0 ROOT
