@<TRIPOS>MOLECULE
LAG
   67    69     1     0     0
SMALL
abcg2


@<TRIPOS>ATOM
      1 CA1         -4.5420    -1.1330    -1.0110 c2         1 LAG       0.555200
      2 NA1         -5.3490    -1.7220    -1.8100 n2         1 LAG      -0.439700
      3 OA7         -5.1280    -3.0900    -1.8480 oh         1 LAG      -0.529000
      4 CA2         -4.6450     0.3700    -0.9800 c6         1 LAG       0.118000
      5 OA2         -3.7160     0.9420    -1.8780 oh         1 LAG      -0.657000
      6 CA3         -4.3870     0.9030     0.4300 c6         1 LAG       0.144300
      7 OA3         -5.4500     0.5480     1.2750 oh         1 LAG      -0.716000
      8 CA4         -3.1190     0.3020     1.0380 c6         1 LAG       0.184300
      9 OA4         -1.9980     0.7890     0.3290 os         1 LAG      -0.469000
     10 CA5         -3.0860    -1.2220     0.9770 c6         1 LAG       0.220500
     11 NA5         -3.5280    -1.7190    -0.3170 nu         1 LAG      -0.867400
     12 CA6         -3.8460    -1.8890     2.1200 c3         1 LAG       0.132600
     13 OA6         -3.5520    -3.2690     2.0690 oh         1 LAG      -0.666000
     14 CB1         -1.4210     1.9640     0.8080 c6         1 LAG       0.347300
     15 CB2         -0.7850     2.6730    -0.3840 c6         1 LAG       0.126300
     16 CB3          0.3910     1.8480    -0.9010 c6         1 LAG       0.128300
     17 CB4          1.3650     1.5590     0.2350 c6         1 LAG       0.164300
     18 CB5          0.6280     0.9080     1.4150 c6         1 LAG       0.150300
     19 CB6          1.5120     0.7640     2.6350 c3         1 LAG       0.161600
     20 OB2         -1.7160     2.9710    -1.3880 oh         1 LAG      -0.728000
     21 OB3          1.0980     2.5390    -1.9080 oh         1 LAG      -0.731000
     22 OB4          2.3600     0.6980    -0.2720 os         1 LAG      -0.496000
     23 OB5         -0.4740     1.7160     1.8010 os         1 LAG      -0.455000
     24 OB6          0.7820     0.1080     3.6470 oh         1 LAG      -0.713000
     25 CD1          3.7130     1.0160    -0.1150 c6         1 LAG       0.365300
     26 CD2          4.3970     0.9140    -1.4800 c6         1 LAG       0.116300
     27 CD3          4.3930    -0.5380    -1.9520 c6         1 LAG       0.105300
     28 CD4          5.0340    -1.4220    -0.8890 c6         1 LAG       0.151300
     29 CD5          4.3240    -1.2140     0.4490 c6         1 LAG       0.168300
     30 CD6          5.0030    -1.9630     1.5770 c3         1 LAG       0.169600
     31 OD2          3.8470     1.7880    -2.4300 oh         1 LAG      -0.727000
     32 OD3          5.1360    -0.6990    -3.1400 oh         1 LAG      -0.669000
     33 OD4          4.9440    -2.7870    -1.2190 oh         1 LAG      -0.719000
     34 OD5          4.3360     0.1640     0.7940 os         1 LAG      -0.456000
     35 OD6          4.2430    -1.7990     2.7510 oh         1 LAG      -0.719000
     36 HA7         -5.8090    -3.4170    -2.4420 ho         1 LAG       0.464000
     37 HA2         -5.6670     0.6420    -1.2710 h1         1 LAG       0.052700
     38 H8          -4.0090     0.7620    -2.7770 ho         1 LAG       0.465000
     39 HA3         -4.2710     1.9940     0.3740 h1         1 LAG       0.055700
     40 H7          -6.2520     0.9870     0.9710 ho         1 LAG       0.515000
     41 HA4         -3.0620     0.6010     2.0930 h1         1 LAG       0.073700
     42 H1          -2.0350    -1.5080     1.0940 h1         1 LAG       0.093700
     43 HA5         -3.4930    -2.7250    -0.3860 hn         1 LAG       0.498000
     44 HA61        -3.5210    -1.4490     3.0720 h1         1 LAG       0.042700
     45 HA62        -4.9180    -1.7060     2.0210 h1         1 LAG       0.042700
     46 HA6         -4.2760    -3.7500     2.4780 ho         1 LAG       0.450000
     47 HB1         -2.1710     2.6140     1.2760 h2         1 LAG       0.079700
     48 HB2         -0.3950     3.6320    -0.0230 h1         1 LAG       0.090700
     49 HB3          0.0200     0.8880    -1.2890 h1         1 LAG       0.067700
     50 HB4          1.8080     2.5090     0.5710 h1         1 LAG       0.058700
     51 HB5          0.2840    -0.0890     1.1060 h1         1 LAG       0.076700
     52 HB61         2.4050     0.1980     2.3610 h1         1 LAG       0.043200
     53 HB62         1.8450     1.7620     2.9530 h1         1 LAG       0.043200
     54 H6          -2.2730     2.1930    -1.5600 ho         1 LAG       0.542000
     55 H5           0.5130     2.6570    -2.6640 ho         1 LAG       0.525000
     56 HB6          1.3950    -0.1040     4.3560 ho         1 LAG       0.506000
     57 HD1          3.8310     2.0280     0.2890 h2         1 LAG       0.082700
     58 HD2          5.4400     1.2210    -1.3400 h1         1 LAG       0.087700
     59 HD3          3.3540    -0.8690    -2.1010 h1         1 LAG       0.059700
     60 HD4          6.0850    -1.1120    -0.7740 h1         1 LAG       0.048700
     61 HD5          3.2910    -1.5750     0.3610 h1         1 LAG       0.077700
     62 HD61         5.0810    -3.0170     1.2910 h1         1 LAG       0.037200
     63 HD62         6.0270    -1.5830     1.6970 h1         1 LAG       0.037200
     64 H4           2.8800     1.8120    -2.3370 ho         1 LAG       0.538000
     65 H3           4.7110    -0.1800    -3.8300 ho         1 LAG       0.463000
     66 H2           5.3750    -2.9190    -2.0700 ho         1 LAG       0.525000
     67 HD6          4.6280    -2.3560     3.4340 ho         1 LAG       0.504000
@<TRIPOS>BOND
     1     1     2 2   
     2     1     4 1   
     3     1    11 1   
     4     2     3 1   
     5     3    36 1   
     6     4     5 1   
     7     4     6 1   
     8     4    37 1   
     9     5    38 1   
    10     6     7 1   
    11     6     8 1   
    12     6    39 1   
    13     7    40 1   
    14     8     9 1   
    15     8    10 1   
    16     8    41 1   
    17     9    14 1   
    18    10    11 1   
    19    10    12 1   
    20    10    42 1   
    21    11    43 1   
    22    12    13 1   
    23    12    44 1   
    24    12    45 1   
    25    13    46 1   
    26    14    15 1   
    27    14    23 1   
    28    14    47 1   
    29    15    16 1   
    30    15    20 1   
    31    15    48 1   
    32    16    17 1   
    33    16    21 1   
    34    16    49 1   
    35    17    18 1   
    36    17    22 1   
    37    17    50 1   
    38    18    19 1   
    39    18    23 1   
    40    18    51 1   
    41    19    24 1   
    42    19    52 1   
    43    19    53 1   
    44    20    54 1   
    45    21    55 1   
    46    22    25 1   
    47    24    56 1   
    48    25    26 1   
    49    25    34 1   
    50    25    57 1   
    51    26    27 1   
    52    26    31 1   
    53    26    58 1   
    54    27    28 1   
    55    27    32 1   
    56    27    59 1   
    57    28    29 1   
    58    28    33 1   
    59    28    60 1   
    60    29    30 1   
    61    29    34 1   
    62    29    61 1   
    63    30    35 1   
    64    30    62 1   
    65    30    63 1   
    66    31    64 1   
    67    32    65 1   
    68    33    66 1   
    69    35    67 1   
@<TRIPOS>SUBSTRUCTURE
     1 LAG         1 TEMP              0 ****  ****    0 ROOT
