@<TRIPOS>MOLECULE
LAH
   33    33     1     0     0
SMALL
No Charge or Current Charge


@<TRIPOS>ATOM
      1 CAA          2.9020     1.7100     0.0750 c3         1 LAH      -0.102600
      2 CAL          2.6970     0.2010    -0.1580 c3         1 LAH       0.239300
      3 CAB          3.9040    -0.4810    -0.8390 c3         1 LAH      -0.102600
      4 OAJ          2.4980    -0.4010     1.1260 os         1 LAH      -0.602400
      5 PAQ          1.5690    -1.7040     1.3240 p5         1 LAH       1.411800
      6 OAG          1.4560    -2.5410     0.0980 o          1 LAH      -0.826000
      7 OAC          2.0450    -2.5050     2.4880 o          1 LAH      -0.826000
      8 OAK          0.1770    -0.9770     1.6840 os         1 LAH      -0.579400
      9 CBO         -0.6590    -0.2180     0.7580 c6         1 LAH       0.229300
     10 CBM         -1.7990     0.4860     1.5740 c6         1 LAH       0.167300
     11 O14         -1.2730     1.3740     2.5780 oh         1 LAH      -0.601000
     12 CBL         -2.7540     1.2870     0.6450 c6         1 LAH       0.093300
     13 O10         -2.0520     2.4160     0.0800 oh         1 LAH      -0.677000
     14 CBN         -3.2870     0.3270    -0.4550 c6         1 LAH       0.144600
     15 OAX         -2.1890    -0.2190    -1.2120 os         1 LAH      -0.491000
     16 C8          -1.2960    -1.0430    -0.4390 c6         1 LAH       0.371300
     17 OAH         -0.3470    -1.5230    -1.3850 oh         1 LAH      -0.598000
     18 H1           3.0550     2.2260    -0.8800 hc         1 LAH       0.027367
     19 H2           2.0210     2.1470     0.5600 hc         1 LAH       0.027367
     20 H3           3.7770     1.8930     0.7090 hc         1 LAH       0.027367
     21 H4           1.8180     0.0680    -0.8000 h1         1 LAH       0.032700
     22 H5           3.7060    -1.5410    -1.0300 hc         1 LAH       0.027367
     23 H6           4.1160    -0.0020    -1.8020 hc         1 LAH       0.027367
     24 H7           4.8010    -0.4010    -0.2140 hc         1 LAH       0.027367
     25 H9          -0.0470     0.5760     0.3110 h1         1 LAH       0.107700
     26 H10         -2.3890    -0.3010     2.0650 h1         1 LAH       0.026700
     27 H11         -1.1940     2.2400     2.1200 ho         1 LAH       0.418000
     28 H12         -3.6100     1.6430     1.2360 h1         1 LAH       0.008700
     29 H13         -2.6090     2.7670    -0.6530 ho         1 LAH       0.483000
     30 H14         -3.8610    -0.4950    -0.0020 h1         1 LAH       0.031700
     31 H15         -3.9570     0.8690    -1.1380 h1         1 LAH       0.031700
     32 H16         -1.8590    -1.8940    -0.0270 h2         1 LAH       0.009700
     33 H17          0.3400    -2.0200    -0.8550 ho         1 LAH       0.435000
@<TRIPOS>BOND
     1     1     2 1   
     2     1    18 1   
     3     1    19 1   
     4     1    20 1   
     5     2     3 1   
     6     2     4 1   
     7     2    21 1   
     8     3    22 1   
     9     3    23 1   
    10     3    24 1   
    11     4     5 1   
    12     5     6 1   
    13     5     7 1   
    14     5     8 1   
    15     8     9 1   
    16     9    10 1   
    17     9    16 1   
    18     9    25 1   
    19    10    11 1   
    20    10    12 1   
    21    10    26 1   
    22    11    27 1   
    23    12    13 1   
    24    12    14 1   
    25    12    28 1   
    26    13    29 1   
    27    14    15 1   
    28    14    30 1   
    29    14    31 1   
    30    15    16 1   
    31    16    17 1   
    32    16    32 1   
    33    17    33 1   
@<TRIPOS>SUBSTRUCTURE
     1 LAH         1 TEMP              0 ****  ****    0 ROOT
