@<TRIPOS>MOLECULE
LAH
   33    33     1     0     0
SMALL
abcg2


@<TRIPOS>ATOM
      1 CAA          3.7370     1.8890     0.1020 c3         1 LAH      -0.102600
      2 CAL          3.5900     0.3840    -0.0280 c3         1 LAH       0.239300
      3 CAB          4.6600    -0.3620     0.7520 c3         1 LAH      -0.102600
      4 OAJ          2.2920     0.0360     0.4450 os         1 LAH      -0.602400
      5 PAQ          1.4810    -1.2010    -0.2600 p5         1 LAH       1.411800
      6 OAG          1.2760    -0.9050    -1.7150 o          1 LAH      -0.826000
      7 OAC          2.0720    -2.5100     0.1690 o          1 LAH      -0.826000
      8 OAK          0.0890    -1.0250     0.5880 os         1 LAH      -0.579400
      9 CBO         -1.0580    -0.4110     0.0490 c6         1 LAH       0.229300
     10 CBM         -1.5100     0.7230     0.9620 c6         1 LAH       0.167300
     11 O14         -0.5100     1.7040     0.9740 oh         1 LAH      -0.601000
     12 CBL         -2.8690     1.2590     0.5110 c6         1 LAH       0.093300
     13 O10         -2.6960     1.9160    -0.7220 oh         1 LAH      -0.677000
     14 CBN         -3.8450     0.0950     0.4100 c6         1 LAH       0.144600
     15 OAX         -3.3680    -0.8940    -0.4720 os         1 LAH      -0.491000
     16 C8          -2.1610    -1.4690    -0.0310 c6         1 LAH       0.371300
     17 OAH         -1.7840    -2.4380    -0.9330 oh         1 LAH      -0.598000
     18 H1           4.7130     2.2100    -0.2620 hc         1 LAH       0.027367
     19 H2           2.9720     2.4090    -0.4740 hc         1 LAH       0.027367
     20 H3           3.6490     2.2020     1.1450 hc         1 LAH       0.027367
     21 H4           3.6830     0.1220    -1.0900 h1         1 LAH       0.032700
     22 H5           4.5550    -1.4400     0.6280 hc         1 LAH       0.027367
     23 H6           5.6550    -0.0770     0.4060 hc         1 LAH       0.027367
     24 H7           4.5970    -0.1330     1.8180 hc         1 LAH       0.027367
     25 H9          -0.8670    -0.0240    -0.9580 h1         1 LAH       0.107700
     26 H10         -1.6610     0.3020     1.9700 h1         1 LAH       0.026700
     27 H11         -0.7540     2.3780     1.6160 ho         1 LAH       0.418000
     28 H12         -3.2500     1.9490     1.2800 h1         1 LAH       0.008700
     29 H13         -3.5430     2.2890    -0.9870 ho         1 LAH       0.483000
     30 H14         -4.0240    -0.3190     1.4140 h1         1 LAH       0.031700
     31 H15         -4.8100     0.4320     0.0270 h1         1 LAH       0.031700
     32 H16         -2.3140    -1.8910     0.9800 h2         1 LAH       0.009700
     33 H17         -2.2990    -3.2360    -0.7740 ho         1 LAH       0.435000
@<TRIPOS>BOND
     1     1     2 1   
     2     1    18 1   
     3     1    19 1   
     4     1    20 1   
     5     2     3 1   
     6     2     4 1   
     7     2    21 1   
     8     3    22 1   
     9     3    23 1   
    10     3    24 1   
    11     4     5 1   
    12     5     6 1   
    13     5     7 1   
    14     5     8 1   
    15     8     9 1   
    16     9    10 1   
    17     9    16 1   
    18     9    25 1   
    19    10    11 1   
    20    10    12 1   
    21    10    26 1   
    22    11    27 1   
    23    12    13 1   
    24    12    14 1   
    25    12    28 1   
    26    13    29 1   
    27    14    15 1   
    28    14    30 1   
    29    14    31 1   
    30    15    16 1   
    31    16    17 1   
    32    16    32 1   
    33    17    33 1   
@<TRIPOS>SUBSTRUCTURE
     1 LAH         1 TEMP              0 ****  ****    0 ROOT
