@<TRIPOS>MOLECULE
LAI
   20    19     1     0     0
SMALL
abcg2


@<TRIPOS>ATOM
      1 O1           3.6140     0.1750     0.2740 oh         1 LAI      -0.706000
      2 C2           2.4340     0.6960    -0.2910 c3         1 LAI       0.128600
      3 C4           1.2730    -0.2080     0.0910 c3         1 LAI       0.142300
      4 C6          -0.0590     0.3780    -0.4060 c3         1 LAI       0.128300
      5 C8          -1.2420    -0.5550    -0.1200 c3         1 LAI       0.023300
      6 C10         -2.4780     0.0550    -0.7200 c          1 LAI       0.547900
      7 O14          1.4540    -1.5230    -0.3800 oh         1 LAI      -0.690000
      8 O16         -0.3080     1.6540     0.1340 oh         1 LAI      -0.717000
      9 O18         -1.3870    -0.7620     1.2550 oh         1 LAI      -0.708000
     10 O20         -3.4670     0.2900    -0.0700 o          1 LAI      -0.510100
     11 HO1          4.3330     0.7780     0.0670 ho         1 LAI       0.504000
     12 H2           2.2310     1.7130     0.0610 h1         1 LAI       0.026700
     13 H2A          2.4990     0.7480    -1.3890 h1         1 LAI       0.026700
     14 H4           1.2360    -0.2840     1.1830 h1         1 LAI       0.102700
     15 H6           0.0060     0.5140    -1.4930 h1         1 LAI       0.067700
     16 H8          -1.0800    -1.5040    -0.6530 h1         1 LAI       0.088700
     17 H10         -2.4290     0.2630    -1.8000 h4         1 LAI       0.005200
     18 HO14         1.6040    -1.4920    -1.3320 ho         1 LAI       0.493000
     19 HO16        -0.4270     1.5580     1.0870 ho         1 LAI       0.519000
     20 HO18        -2.2760    -0.4810     1.5080 ho         1 LAI       0.527000
@<TRIPOS>BOND
     1     1     2 1   
     2     1    11 1   
     3     2     3 1   
     4     2    12 1   
     5     2    13 1   
     6     3     4 1   
     7     3     7 1   
     8     3    14 1   
     9     4     5 1   
    10     4     8 1   
    11     4    15 1   
    12     5     6 1   
    13     5     9 1   
    14     5    16 1   
    15     6    10 2   
    16     6    17 1   
    17     7    18 1   
    18     8    19 1   
    19     9    20 1   
@<TRIPOS>SUBSTRUCTURE
     1 LAI         1 TEMP              0 ****  ****    0 ROOT
