@<TRIPOS>MOLECULE
LAI
   20    19     1     0     0
SMALL
No Charge or Current Charge


@<TRIPOS>ATOM
      1 O1           3.6970    -0.0830    -0.2180 oh         1 LAI      -0.706000
      2 C2           2.4880     0.6900    -0.3570 c3         1 LAI       0.128600
      3 C4           1.2590    -0.1970    -0.0200 c3         1 LAI       0.142300
      4 C6          -0.1050     0.4790    -0.3710 c3         1 LAI       0.128300
      5 C8          -1.3370    -0.3750     0.0350 c3         1 LAI       0.023300
      6 C10         -2.5800    -0.0070    -0.8260 c          1 LAI       0.547900
      7 O14          1.4170    -1.4270    -0.7480 oh         1 LAI      -0.690000
      8 O16         -0.2450     1.7270     0.3190 oh         1 LAI      -0.717000
      9 O18         -1.5620    -0.2260     1.4760 oh         1 LAI      -0.708000
     10 O20         -3.6980     0.1980    -0.3580 o          1 LAI      -0.510100
     11 HO1          4.4540     0.5370    -0.3460 ho         1 LAI       0.504000
     12 H2           2.5070     1.5550     0.3190 h1         1 LAI       0.026700
     13 H2A          2.3940     1.0690    -1.3840 h1         1 LAI       0.026700
     14 H4           1.2760    -0.3940     1.0630 h1         1 LAI       0.102700
     15 H6          -0.1210     0.6420    -1.4590 h1         1 LAI       0.067700
     16 H8          -1.1250    -1.4240    -0.2130 h1         1 LAI       0.088700
     17 H10         -2.4140    -0.0080    -1.9270 h4         1 LAI       0.005200
     18 HO14         2.4000    -1.5270    -0.8040 ho         1 LAI       0.493000
     19 HO16        -0.7550     1.4590     1.1290 ho         1 LAI       0.519000
     20 HO18        -2.4170    -0.6730     1.6970 ho         1 LAI       0.527000
@<TRIPOS>BOND
     1     1     2 1   
     2     1    11 1   
     3     2     3 1   
     4     2    12 1   
     5     2    13 1   
     6     3     4 1   
     7     3     7 1   
     8     3    14 1   
     9     4     5 1   
    10     4     8 1   
    11     4    15 1   
    12     5     6 1   
    13     5     9 1   
    14     5    16 1   
    15     6    10 2   
    16     6    17 1   
    17     7    18 1   
    18     8    19 1   
    19     9    20 1   
@<TRIPOS>SUBSTRUCTURE
     1 LAI         1 TEMP              0 ****  ****    0 ROOT
