@<TRIPOS>MOLECULE
LAJ
   46    48     1     0     0
SMALL
No Charge or Current Charge


@<TRIPOS>ATOM
      1 C13         -4.9710     0.7090     0.3610 ca         1 LAJ       0.597900
      2 C18          3.8580     3.5520     0.8350 c3         1 LAJ      -0.343100
      3 C17         -6.9330     1.8310     0.7680 ca         1 LAJ       0.373900
      4 C16         -7.7010     0.7640     0.2710 ca         1 LAJ      -0.195000
      5 C15         -7.0500    -0.3820    -0.2110 ca         1 LAJ      -0.052000
      6 C11          4.5550     0.8850    -1.0940 ca         1 LAJ       0.005000
      7 C12          3.4710     0.9650    -0.1920 ca         1 LAJ      -0.306500
      8 C1          -0.3560    -1.6110     0.0920 ca         1 LAJ       0.160500
      9 N1          -1.6350    -2.0810     0.0140 nb         1 LAJ      -0.264000
     10 N2          -2.6860    -1.2480     0.1320 nb         1 LAJ      -0.409000
     11 C2          -2.5080     0.0720     0.3340 ca         1 LAJ       0.605900
     12 C3          -1.2330     0.6290     0.4230 ca         1 LAJ      -0.254000
     13 C4          -0.1240    -0.2130     0.2790 ca         1 LAJ       0.388000
     14 N3          -3.6230     0.8730     0.4690 nu         1 LAJ      -0.900800
     15 N4           1.1280     0.4180     0.3090 nu         1 LAJ      -0.979000
     16 N5           0.4100    -3.8730    -0.5060 ns         1 LAJ      -0.487900
     17 O1           1.8950    -2.4720     0.4670 o          1 LAJ      -0.583100
     18 C6           1.3190    -5.0140    -0.6450 c3         1 LAJ       0.095300
     19 C7           2.2320     0.3850    -0.5400 ca         1 LAJ       0.431000
     20 C8           2.0890    -0.2220    -1.8020 ca         1 LAJ      -0.188000
     21 C9           3.1660    -0.2950    -2.6970 ca         1 LAJ      -0.022000
     22 C10          4.4030     0.2550    -2.3380 ca         1 LAJ      -0.158000
     23 C14         -5.6470    -0.4050    -0.1660 ca         1 LAJ      -0.172000
     24 N6          -5.5800     1.8070     0.8100 nb         1 LAJ      -0.742000
     25 O2           5.0980     1.4900     1.8440 o          1 LAJ      -0.521500
     26 O3           2.5830     1.7370     2.2290 o          1 LAJ      -0.521500
     27 H16          2.9080     3.8210     0.3610 h1         1 LAJ       0.101033
     28 H18          4.0340     4.1680     1.7230 h1         1 LAJ       0.101033
     29 H17          4.6850     3.6510     0.1260 h1         1 LAJ       0.101033
     30 H15         -7.4140     2.7330     1.1430 h4         1 LAJ       0.019100
     31 H14         -8.7850     0.8350     0.2590 ha         1 LAJ       0.127000
     32 H13         -7.6140    -1.2240    -0.6100 ha         1 LAJ       0.121000
     33 H11          5.5220     1.3190    -0.8400 ha         1 LAJ       0.137000
     34 H4          -1.1060     1.6950     0.5690 ha         1 LAJ       0.137000
     35 H5          -3.4150     1.8150     0.7730 hn         1 LAJ       0.512000
     36 H6           1.2660     1.0130     1.1300 hn         1 LAJ       0.523000
     37 H7          -0.5510    -3.9720    -0.8190 hn         1 LAJ       0.330500
     38 H2           2.1760    -4.7290    -1.2680 h1         1 LAJ       0.042033
     39 H3           1.6740    -5.3250     0.3460 h1         1 LAJ       0.042033
     40 H1           0.7880    -5.8500    -1.1180 h1         1 LAJ       0.042033
     41 H8           1.1350    -0.6420    -2.1020 ha         1 LAJ       0.122000
     42 H9           3.0410    -0.7730    -3.6660 ha         1 LAJ       0.116000
     43 H10          5.2420     0.2010    -3.0270 ha         1 LAJ       0.124000
     44 H12         -5.1100    -1.2660    -0.5440 ha         1 LAJ       0.163000
     45 C5           0.7620    -2.6480     0.0350 c          1 LAJ       0.517600
     46 S1           3.7590     1.8400     1.3560 sy         1 LAJ       1.062500
@<TRIPOS>BOND
     1     1    14 1   
     2     1    23 ar  
     3     1    24 ar  
     4     2    27 1   
     5     2    28 1   
     6     2    29 1   
     7     2    46 1   
     8     3     4 ar  
     9     3    24 ar  
    10     3    30 1   
    11     4     5 ar  
    12     4    31 1   
    13     5    23 ar  
    14     5    32 1   
    15     6     7 ar  
    16     6    22 ar  
    17     6    33 1   
    18     7    19 ar  
    19     7    46 1   
    20     8     9 ar  
    21     8    13 ar  
    22     8    45 1   
    23     9    10 ar  
    24    10    11 ar  
    25    11    12 ar  
    26    11    14 1   
    27    12    13 ar  
    28    12    34 1   
    29    13    15 1   
    30    14    35 1   
    31    15    19 1   
    32    15    36 1   
    33    16    18 1   
    34    16    37 1   
    35    16    45 1   
    36    17    45 2   
    37    18    38 1   
    38    18    39 1   
    39    18    40 1   
    40    19    20 ar  
    41    20    21 ar  
    42    20    41 1   
    43    21    22 ar  
    44    21    42 1   
    45    22    43 1   
    46    23    44 1   
    47    25    46 2   
    48    26    46 2   
@<TRIPOS>SUBSTRUCTURE
     1 LAJ         1 TEMP              0 ****  ****    0 ROOT
