@<TRIPOS>MOLECULE
LAJ
   46    48     1     0     0
SMALL
abcg2


@<TRIPOS>ATOM
      1 C13         -5.0540     0.7280     0.3770 ca         1 LAJ       0.597900
      2 C18          3.9580     3.2550     0.7640 c3         1 LAJ      -0.343100
      3 C17         -7.1460     1.6300     0.5810 ca         1 LAJ       0.373900
      4 C16         -7.7690     0.4150     0.3510 ca         1 LAJ      -0.195000
      5 C15         -6.9540    -0.6850     0.1240 ca         1 LAJ      -0.052000
      6 C11          4.5340     0.2360    -0.8980 ca         1 LAJ       0.005000
      7 C12          3.4560     0.6540    -0.1190 ca         1 LAJ      -0.306500
      8 C1          -0.4090    -1.2280     0.0160 ca         1 LAJ       0.160500
      9 N1          -1.6130    -1.7390    -0.0760 nb         1 LAJ      -0.264000
     10 N2          -2.7000    -1.0160     0.0340 nb         1 LAJ      -0.409000
     11 C2          -2.5850     0.2860     0.2710 ca         1 LAJ       0.605900
     12 C3          -1.3380     0.9260     0.3370 ca         1 LAJ      -0.254000
     13 C4          -0.2040     0.1660     0.1850 ca         1 LAJ       0.388000
     14 N3          -3.7070     1.0460     0.4220 nu         1 LAJ      -0.900800
     15 N4           1.0330     0.7650     0.2190 nu         1 LAJ      -0.979000
     16 N5           0.6140    -3.2370    -0.7970 ns         1 LAJ      -0.487900
     17 O1           1.6120    -2.1100     0.8860 o          1 LAJ      -0.583100
     18 C6           1.5960    -4.2920    -0.8570 c3         1 LAJ       0.095300
     19 C7           2.1360     0.3830    -0.5160 ca         1 LAJ       0.431000
     20 C8           1.9540    -0.2640    -1.7450 ca         1 LAJ      -0.188000
     21 C9           3.0280    -0.6880    -2.4990 ca         1 LAJ      -0.022000
     22 C10          4.3310    -0.4500    -2.0780 ca         1 LAJ      -0.158000
     23 C14         -5.5780    -0.5460     0.1330 ca         1 LAJ      -0.172000
     24 N6          -5.8310     1.7860     0.5940 nb         1 LAJ      -0.742000
     25 O2           5.2040     1.1700     1.7760 o          1 LAJ      -0.521500
     26 O3           2.7770     1.4900     2.3120 o          1 LAJ      -0.521500
     27 H16          2.9890     3.5560     0.3710 h1         1 LAJ       0.101033
     28 H18          4.2240     3.8790     1.6170 h1         1 LAJ       0.101033
     29 H17          4.7180     3.3330    -0.0100 h1         1 LAJ       0.101033
     30 H15         -7.7330     2.5230     0.7640 h4         1 LAJ       0.019100
     31 H14         -8.8470     0.3370     0.3510 ha         1 LAJ       0.127000
     32 H13         -7.3870    -1.6590    -0.0640 ha         1 LAJ       0.121000
     33 H11          5.5450     0.4470    -0.5740 ha         1 LAJ       0.137000
     34 H4          -1.2740     1.9990     0.4670 ha         1 LAJ       0.137000
     35 H5          -3.5500     2.0270     0.6030 hn         1 LAJ       0.512000
     36 H6           1.1290     1.5220     0.8760 hn         1 LAJ       0.523000
     37 H7          -0.1720    -3.2650    -1.4250 hn         1 LAJ       0.330500
     38 H2           2.5710    -3.9110    -1.1660 h1         1 LAJ       0.042033
     39 H3           1.7110    -4.7880     0.1070 h1         1 LAJ       0.042033
     40 H1           1.2680    -5.0280    -1.5840 h1         1 LAJ       0.042033
     41 H8           0.9530    -0.4190    -2.1250 ha         1 LAJ       0.122000
     42 H9           2.8420    -1.1930    -3.4380 ha         1 LAJ       0.116000
     43 H10          5.1760    -0.7760    -2.6690 ha         1 LAJ       0.124000
     44 H12         -4.9300    -1.3890    -0.0410 ha         1 LAJ       0.163000
     45 C5           0.7080    -2.2290     0.0720 c          1 LAJ       0.517600
     46 S1           3.8700     1.5750     1.3420 sy         1 LAJ       1.062500
@<TRIPOS>BOND
     1     1    14 1   
     2     1    23 ar  
     3     1    24 ar  
     4     2    27 1   
     5     2    28 1   
     6     2    29 1   
     7     2    46 1   
     8     3     4 ar  
     9     3    24 ar  
    10     3    30 1   
    11     4     5 ar  
    12     4    31 1   
    13     5    23 ar  
    14     5    32 1   
    15     6     7 ar  
    16     6    22 ar  
    17     6    33 1   
    18     7    19 ar  
    19     7    46 1   
    20     8     9 ar  
    21     8    13 ar  
    22     8    45 1   
    23     9    10 ar  
    24    10    11 ar  
    25    11    12 ar  
    26    11    14 1   
    27    12    13 ar  
    28    12    34 1   
    29    13    15 1   
    30    14    35 1   
    31    15    19 1   
    32    15    36 1   
    33    16    18 1   
    34    16    37 1   
    35    16    45 1   
    36    17    45 2   
    37    18    38 1   
    38    18    39 1   
    39    18    40 1   
    40    19    20 ar  
    41    20    21 ar  
    42    20    41 1   
    43    21    22 ar  
    44    21    42 1   
    45    22    43 1   
    46    23    44 1   
    47    25    46 2   
    48    26    46 2   
@<TRIPOS>SUBSTRUCTURE
     1 LAJ         1 TEMP              0 ****  ****    0 ROOT
