@<TRIPOS>MOLECULE
LAM
   78    81     1     0     0
SMALL
abcg2


@<TRIPOS>ATOM
      1 C1          -3.9530    -1.3860    -0.1040 c6         1 LAM       0.269300
      2 C2          -3.6310    -2.8820    -0.1660 c6         1 LAM       0.126300
      3 O2          -2.2810    -3.1260    -0.4550 oh         1 LAM      -0.729000
      4 C3          -4.4680    -3.5170    -1.2700 c6         1 LAM       0.136300
      5 O3          -4.3390    -4.9180    -1.2950 oh         1 LAM      -0.666000
      6 C4          -5.9450    -3.1980    -1.0760 c6         1 LAM       0.144300
      7 O4          -6.7130    -3.6520    -2.1620 oh         1 LAM      -0.721000
      8 C5          -6.1250    -1.6840    -0.9640 c6         1 LAM       0.160300
      9 O5          -5.3250    -1.1870     0.0940 os         1 LAM      -0.414000
     10 C6          -7.5610    -1.3070    -0.6660 c3         1 LAM       0.172600
     11 O6          -7.6700     0.0960    -0.6460 oh         1 LAM      -0.709000
     12 C1A         -0.3030     1.9800    -0.2790 c6         1 LAM       0.366300
     13 C2A         -0.9170     0.6570     0.1820 c6         1 LAM       0.153300
     14 C3A         -2.3650     0.8780     0.5910 c6         1 LAM       0.065300
     15 C4A         -2.4790     2.0140     1.6050 c6         1 LAM       0.155300
     16 C5A         -1.7660     3.2550     1.0380 c6         1 LAM       0.143300
     17 C6A         -1.7570     4.3960     2.0320 c3         1 LAM       0.171600
     18 O1A          1.0380     1.7460    -0.4960 os         1 LAM      -0.426000
     19 O2A         -0.8970    -0.3060    -0.8350 oh         1 LAM      -0.726000
     20 O4A         -3.8420     2.2640     1.8240 oh         1 LAM      -0.693000
     21 S3A         -3.0690    -0.6480     1.2940 ss         1 LAM      -0.367000
     22 O5A         -0.4250     2.9420     0.7290 os         1 LAM      -0.449000
     23 O6A         -1.1840     5.5290     1.4270 oh         1 LAM      -0.704000
     24 C1B          4.0400     1.9950    -0.6000 c6         1 LAM       0.355300
     25 C2B          3.0050     3.1030    -0.8230 c6         1 LAM       0.153300
     26 C3B          1.7170     2.5590    -1.4270 c6         1 LAM       0.191300
     27 C4B          2.0550     1.7340    -2.6680 c6         1 LAM       0.119300
     28 C5B          3.0800     0.6490    -2.3200 c6         1 LAM       0.139300
     29 C6B          3.5430    -0.1120    -3.5420 c3         1 LAM       0.167600
     30 O2B          2.7160     3.8100     0.3450 oh         1 LAM      -0.662000
     31 O4B          0.8590     1.1770    -3.1530 oh         1 LAM      -0.710000
     32 O5B          4.2370     1.2500    -1.7500 os         1 LAM      -0.455000
     33 O6B          4.4130    -1.1390    -3.1370 oh         1 LAM      -0.701000
     34 C7           4.4420     0.3290     1.0590 ca         1 LAM       0.195100
     35 C8           3.9320    -0.3340     2.1810 ca         1 LAM      -0.183000
     36 C9           4.7040    -1.2400     2.8710 ca         1 LAM      -0.008500
     37 C10          6.0030    -1.4940     2.4410 ca         1 LAM      -0.227200
     38 C11          6.5190    -0.8520     1.3250 ca         1 LAM      -0.008500
     39 C12          5.7410     0.0520     0.6260 ca         1 LAM      -0.183000
     40 N4           6.8200    -2.4400     3.1640 no         1 LAM       0.702200
     41 O'5          6.3430    -2.9830     4.1350 o          1 LAM      -0.409000
     42 O'6          7.9460    -2.6470     2.7680 o          1 LAM      -0.409000
     43 H11         -3.6060    -0.8970    -1.0260 h2         1 LAM       0.070700
     44 H21         -3.9240    -3.3300     0.7980 h1         1 LAM       0.066700
     45 HO21        -1.7460    -2.4390    -0.0370 ho         1 LAM       0.536000
     46 H31         -4.1510    -3.0760    -2.2290 h1         1 LAM       0.048700
     47 HO31        -3.4640    -5.1450    -1.6260 ho         1 LAM       0.466000
     48 H41         -6.2810    -3.6580    -0.1330 h1         1 LAM       0.056700
     49 HO41        -6.5590    -4.5970    -2.2630 ho         1 LAM       0.525000
     50 H51         -5.8170    -1.2220    -1.9160 h1         1 LAM       0.058700
     51 H61         -8.2000    -1.7520    -1.4350 h1         1 LAM       0.035700
     52 H62         -7.8500    -1.7550     0.2950 h1         1 LAM       0.035700
     53 HO61        -8.5970     0.3180    -0.5280 ho         1 LAM       0.502000
     54 H1A1        -0.8150     2.3240    -1.1950 h2         1 LAM       0.042700
     55 H2A1        -0.3480     0.3250     1.0650 h1         1 LAM       0.066700
     56 H3A1        -2.9570     1.1480    -0.2910 h1         1 LAM       0.096700
     57 H4A1        -1.9690     1.7220     2.5340 h1         1 LAM       0.054700
     58 H5A1        -2.3080     3.5720     0.1310 h1         1 LAM       0.060700
     59 H6A1        -2.7890     4.5900     2.3440 h1         1 LAM       0.027200
     60 H6A2        -1.2020     4.0820     2.9280 h1         1 LAM       0.027200
     61 HA21        -0.0100    -0.3470    -1.2100 ho         1 LAM       0.534000
     62 HA41        -3.9560     2.6260     2.7070 ho         1 LAM       0.509000
     63 HA61        -1.2840     6.2690     2.0320 ho         1 LAM       0.503000
     64 H1B1         5.0120     2.4440    -0.3610 h2         1 LAM       0.075700
     65 H2B1         3.4490     3.7550    -1.5880 h1         1 LAM       0.044700
     66 H3B1         1.0920     3.4100    -1.7280 h1         1 LAM       0.074700
     67 H4B1         2.5070     2.4130    -3.4050 h1         1 LAM       0.045700
     68 H5B1         2.6240    -0.0610    -1.6170 h1         1 LAM       0.085700
     69 H6B1         2.6590    -0.5150    -4.0500 h1         1 LAM       0.024200
     70 H6B2         4.0270     0.5860    -4.2390 h1         1 LAM       0.024200
     71 HB21         3.4690     4.3710     0.5550 ho         1 LAM       0.504000
     72 HB41         0.9400     1.0270    -4.0990 ho         1 LAM       0.513000
     73 HB61         4.6350    -1.6610    -3.9140 ho         1 LAM       0.507000
     74 H2'1         2.9210    -0.1240     2.5060 ha         1 LAM       0.141500
     75 H3'1         4.2930    -1.7390     3.7360 ha         1 LAM       0.149500
     76 H5'1         7.5240    -1.0520     0.9820 ha         1 LAM       0.149500
     77 H6'1         6.1630     0.5160    -0.2530 ha         1 LAM       0.141500
     78 O1B          3.6090     1.2010     0.4830 os         1 LAM      -0.331100
@<TRIPOS>BOND
     1     1     2 1   
     2     1     9 1   
     3     1    21 1   
     4     1    43 1   
     5     2     3 1   
     6     2     4 1   
     7     2    44 1   
     8     3    45 1   
     9     4     5 1   
    10     4     6 1   
    11     4    46 1   
    12     5    47 1   
    13     6     7 1   
    14     6     8 1   
    15     6    48 1   
    16     7    49 1   
    17     8     9 1   
    18     8    10 1   
    19     8    50 1   
    20    10    11 1   
    21    10    51 1   
    22    10    52 1   
    23    11    53 1   
    24    12    13 1   
    25    12    18 1   
    26    12    22 1   
    27    12    54 1   
    28    13    14 1   
    29    13    19 1   
    30    13    55 1   
    31    14    15 1   
    32    14    21 1   
    33    14    56 1   
    34    15    16 1   
    35    15    20 1   
    36    15    57 1   
    37    16    17 1   
    38    16    22 1   
    39    16    58 1   
    40    17    23 1   
    41    17    59 1   
    42    17    60 1   
    43    18    26 1   
    44    19    61 1   
    45    20    62 1   
    46    23    63 1   
    47    24    25 1   
    48    24    32 1   
    49    24    64 1   
    50    24    78 1   
    51    25    26 1   
    52    25    30 1   
    53    25    65 1   
    54    26    27 1   
    55    26    66 1   
    56    27    28 1   
    57    27    31 1   
    58    27    67 1   
    59    28    29 1   
    60    28    32 1   
    61    28    68 1   
    62    29    33 1   
    63    29    69 1   
    64    29    70 1   
    65    30    71 1   
    66    31    72 1   
    67    33    73 1   
    68    34    35 ar  
    69    34    39 ar  
    70    34    78 1   
    71    35    36 ar  
    72    35    74 1   
    73    36    37 ar  
    74    36    75 1   
    75    37    38 ar  
    76    37    40 1   
    77    38    39 ar  
    78    38    76 1   
    79    39    77 1   
    80    40    41 1   
    81    40    42 1   
@<TRIPOS>SUBSTRUCTURE
     1 LAM         1 TEMP              0 ****  ****    0 ROOT
