@<TRIPOS>MOLECULE
LAM
   78    81     1     0     0
SMALL
No Charge or Current Charge


@<TRIPOS>ATOM
      1 C1          -3.7780    -1.0570     0.0750 c6         1 LAM       0.269300
      2 C2          -3.1130    -2.4690     0.1860 c6         1 LAM       0.126300
      3 O2          -1.6790    -2.4110     0.3820 oh         1 LAM      -0.729000
      4 C3          -3.4390    -3.2810    -1.1000 c6         1 LAM       0.136300
      5 O3          -2.8790    -4.6020    -1.0080 oh         1 LAM      -0.666000
      6 C4          -4.9780    -3.3470    -1.3240 c6         1 LAM       0.144300
      7 O4          -5.2580    -4.0720    -2.5370 oh         1 LAM      -0.721000
      8 C5          -5.5570    -1.8970    -1.3540 c6         1 LAM       0.160300
      9 O5          -5.1980    -1.2010    -0.1300 os         1 LAM      -0.414000
     10 C6          -7.1150    -1.8800    -1.4920 c3         1 LAM       0.172600
     11 O6          -7.6760    -0.5510    -1.4710 oh         1 LAM      -0.709000
     12 C1A         -0.4000     2.4600     0.1560 c6         1 LAM       0.366300
     13 C2A         -1.1050     1.1520     0.6590 c6         1 LAM       0.153300
     14 C3A         -2.6250     1.4230     0.8790 c6         1 LAM       0.065300
     15 C4A         -2.8300     2.6840     1.7730 c6         1 LAM       0.155300
     16 C5A         -2.0310     3.8990     1.2040 c6         1 LAM       0.143300
     17 C6A         -2.1350     5.1650     2.1190 c3         1 LAM       0.171600
     18 O1A          1.0210     2.2550     0.0340 os         1 LAM      -0.426000
     19 O2A         -0.9040     0.0450    -0.2550 oh         1 LAM      -0.726000
     20 O4A         -4.2340     2.9840     1.8790 oh         1 LAM      -0.693000
     21 S3A         -3.5340    -0.0370     1.5980 ss         1 LAM      -0.367000
     22 O5A         -0.6310     3.5430     1.0710 os         1 LAM      -0.449000
     23 O6A         -1.3690     6.2840     1.6330 oh         1 LAM      -0.704000
     24 C1B          4.0100     1.7280    -0.8400 c6         1 LAM       0.355300
     25 C2B          3.1360     3.0160    -1.0610 c6         1 LAM       0.153300
     26 C3B          1.6230     2.6440    -1.2330 c6         1 LAM       0.191300
     27 C4B          1.4550     1.5360    -2.3320 c6         1 LAM       0.119300
     28 C5B          2.3770     0.3230    -1.9960 c6         1 LAM       0.139300
     29 C6B          2.3100    -0.8030    -3.0810 c3         1 LAM       0.167600
     30 O2B          3.3210     4.0050    -0.0130 oh         1 LAM      -0.662000
     31 O4B          0.0790     1.1130    -2.4750 oh         1 LAM      -0.710000
     32 O5B          3.7550     0.7670    -1.8900 os         1 LAM      -0.455000
     33 O6B          3.2100    -1.8980    -2.8240 oh         1 LAM      -0.701000
     34 C7           4.5510     0.0780     0.9150 ca         1 LAM       0.195100
     35 C8           4.1840    -0.4990     2.1390 ca         1 LAM      -0.183000
     36 C9           4.9210    -1.5650     2.6810 ca         1 LAM      -0.008500
     37 C10          6.0490    -2.0690     1.9950 ca         1 LAM      -0.227200
     38 C11          6.4210    -1.4860     0.7620 ca         1 LAM      -0.008500
     39 C12          5.6790    -0.4180     0.2270 ca         1 LAM      -0.183000
     40 N4           6.8390    -3.2060     2.5660 no         1 LAM       0.702200
     41 O'5          6.4760    -3.6860     3.6470 o          1 LAM      -0.409000
     42 O'6          7.8210    -3.6130     1.9320 o          1 LAM      -0.409000
     43 H11         -3.3450    -0.5050    -0.7720 h2         1 LAM       0.070700
     44 H21         -3.5780    -2.9830     1.0410 h1         1 LAM       0.066700
     45 HO21        -1.3920    -1.4650     0.1960 ho         1 LAM       0.536000
     46 H31         -2.9900    -2.7500    -1.9540 h1         1 LAM       0.048700
     47 HO31        -2.0290    -4.4750    -0.5240 ho         1 LAM       0.466000
     48 H41         -5.4260    -3.8730    -0.4680 h1         1 LAM       0.056700
     49 HO41        -4.6070    -4.8160    -2.5400 ho         1 LAM       0.525000
     50 H51         -5.1320    -1.3510    -2.2090 h1         1 LAM       0.058700
     51 H61         -7.3830    -2.3820    -2.4310 h1         1 LAM       0.035700
     52 H62         -7.5370    -2.4790    -0.6730 h1         1 LAM       0.035700
     53 HO61        -8.6560    -0.6520    -1.4990 ho         1 LAM       0.502000
     54 H1A1        -0.8240     2.7340    -0.8220 h2         1 LAM       0.042700
     55 H2A1        -0.6650     0.9000     1.6350 h1         1 LAM       0.066700
     56 H3A1        -3.0790     1.6380    -0.0990 h1         1 LAM       0.096700
     57 H4A1        -2.4280     2.4580     2.7730 h1         1 LAM       0.054700
     58 H5A1        -2.4260     4.1630     0.2120 h1         1 LAM       0.060700
     59 H6A1        -3.1930     5.4480     2.1980 h1         1 LAM       0.027200
     60 H6A2        -1.7960     4.8870     3.1270 h1         1 LAM       0.027200
     61 HA21        -0.4830     0.4360    -1.0820 ho         1 LAM       0.534000
     62 HA41        -4.6790     2.1350     2.1070 ho         1 LAM       0.509000
     63 HA61        -1.4430     6.9980     2.3080 ho         1 LAM       0.503000
     64 H1B1         5.0650     2.0350    -0.8960 h2         1 LAM       0.075700
     65 H2B1         3.4630     3.4530    -2.0160 h1         1 LAM       0.044700
     66 H3B1         1.1150     3.5540    -1.5850 h1         1 LAM       0.074700
     67 H4B1         1.8050     1.9620    -3.2850 h1         1 LAM       0.045700
     68 H5B1         2.0660    -0.1170    -1.0370 h1         1 LAM       0.085700
     69 H6B1         1.2790    -1.1760    -3.1300 h1         1 LAM       0.024200
     70 H6B2         2.5400    -0.3520    -4.0560 h1         1 LAM       0.024200
     71 HB21         4.2720     4.2590    -0.0060 ho         1 LAM       0.504000
     72 HB41        -0.1840     1.2890    -3.4130 ho         1 LAM       0.513000
     73 HB61         3.1470    -2.5080    -3.5950 ho         1 LAM       0.507000
     74 H2'1         3.3180    -0.1150     2.6720 ha         1 LAM       0.141500
     75 H3'1         4.6080    -1.9920     3.6340 ha         1 LAM       0.149500
     76 H5'1         7.2860    -1.8520     0.2090 ha         1 LAM       0.149500
     77 H6'1         5.9930     0.0040    -0.7220 ha         1 LAM       0.141500
     78 O1B          3.7810     1.1270     0.4530 os         1 LAM      -0.331100
@<TRIPOS>BOND
     1     1     2 1   
     2     1     9 1   
     3     1    21 1   
     4     1    43 1   
     5     2     3 1   
     6     2     4 1   
     7     2    44 1   
     8     3    45 1   
     9     4     5 1   
    10     4     6 1   
    11     4    46 1   
    12     5    47 1   
    13     6     7 1   
    14     6     8 1   
    15     6    48 1   
    16     7    49 1   
    17     8     9 1   
    18     8    10 1   
    19     8    50 1   
    20    10    11 1   
    21    10    51 1   
    22    10    52 1   
    23    11    53 1   
    24    12    13 1   
    25    12    18 1   
    26    12    22 1   
    27    12    54 1   
    28    13    14 1   
    29    13    19 1   
    30    13    55 1   
    31    14    15 1   
    32    14    21 1   
    33    14    56 1   
    34    15    16 1   
    35    15    20 1   
    36    15    57 1   
    37    16    17 1   
    38    16    22 1   
    39    16    58 1   
    40    17    23 1   
    41    17    59 1   
    42    17    60 1   
    43    18    26 1   
    44    19    61 1   
    45    20    62 1   
    46    23    63 1   
    47    24    25 1   
    48    24    32 1   
    49    24    64 1   
    50    24    78 1   
    51    25    26 1   
    52    25    30 1   
    53    25    65 1   
    54    26    27 1   
    55    26    66 1   
    56    27    28 1   
    57    27    31 1   
    58    27    67 1   
    59    28    29 1   
    60    28    32 1   
    61    28    68 1   
    62    29    33 1   
    63    29    69 1   
    64    29    70 1   
    65    30    71 1   
    66    31    72 1   
    67    33    73 1   
    68    34    35 ar  
    69    34    39 ar  
    70    34    78 1   
    71    35    36 ar  
    72    35    74 1   
    73    36    37 ar  
    74    36    75 1   
    75    37    38 ar  
    76    37    40 1   
    77    38    39 ar  
    78    38    76 1   
    79    39    77 1   
    80    40    41 1   
    81    40    42 1   
@<TRIPOS>SUBSTRUCTURE
     1 LAM         1 TEMP              0 ****  ****    0 ROOT
