@<TRIPOS>MOLECULE
LAN
   81    84     1     0     0
SMALL
No Charge or Current Charge


@<TRIPOS>ATOM
      1 C6          -0.7400    -0.0370    -1.1460 c2         1 LAN      -0.095400
      2 C5          -2.0350     0.4300    -1.8160 c6         1 LAN      -0.034200
      3 C4          -1.8670     0.9620    -3.2560 c6         1 LAN      -0.069400
      4 C3          -0.7770     0.0980    -4.0440 c6         1 LAN      -0.046700
      5 C25         -0.8400     0.2790    -5.6200 c6         1 LAN      -0.023000
      6 C26         -0.6990     1.7610    -6.1110 c3         1 LAN      -0.079600
      7 C27         -2.2240    -0.2170    -6.1610 c3         1 LAN      -0.079600
      8 C28          0.3130    -0.6540    -6.2700 c6         1 LAN       0.176300
      9 O29          0.4550    -0.5350    -7.7160 oh         1 LAN      -0.659000
     10 C30          1.7300    -0.4720    -5.6270 c6         1 LAN      -0.111400
     11 C31          1.6600    -0.6990    -4.0980 c6         1 LAN      -0.064400
     12 C1           0.6450     0.2420    -3.3570 c6         1 LAN       0.010200
     13 C2           1.2070     1.7050    -3.3220 c3         1 LAN      -0.079100
     14 C24          0.4720    -0.1600    -1.8400 c2         1 LAN      -0.113400
     15 C23          1.7950    -0.6730    -1.1370 c6         1 LAN      -0.034200
     16 C22          1.6960    -0.9530     0.4000 c6         1 LAN      -0.059400
     17 C10          0.5750    -0.1240     1.1000 c5         1 LAN      -0.029000
     18 C11          0.9810     1.3930     0.9880 c3         1 LAN      -0.081100
     19 C7          -0.8090    -0.5000     0.3720 c5         1 LAN      -0.008800
     20 C8          -1.2310    -2.0090     0.3610 c3         1 LAN      -0.079100
     21 C9          -1.7880     0.3390     1.2390 c5         1 LAN      -0.069400
     22 C21         -1.2780     0.0800     2.6990 c5         1 LAN      -0.075400
     23 C12          0.1910    -0.5030     2.5850 c5         1 LAN      -0.051700
     24 C13          1.1270    -0.0630     3.7710 c3         1 LAN      -0.049700
     25 C20          2.5980    -0.5250     3.6160 c3         1 LAN      -0.087100
     26 C14          0.5480    -0.5320     5.1670 c3         1 LAN      -0.074400
     27 C15          1.2290    -0.0050     6.4790 c3         1 LAN      -0.038200
     28 C16          0.4350    -0.3710     7.7190 c2         1 LAN      -0.222200
     29 C17         -0.5930     0.3090     8.2620 c2         1 LAN      -0.114400
     30 C19         -1.2940    -0.1510     9.5270 c3         1 LAN      -0.055400
     31 C18         -1.1910     1.5920     7.7050 c3         1 LAN      -0.055400
     32 H5C1        -2.7410    -0.4110    -1.8290 hc         1 LAN       0.045200
     33 H5C2        -2.5140     1.2160    -1.2200 hc         1 LAN       0.045200
     34 H4C1        -1.6270     2.0440    -3.1970 hc         1 LAN       0.043700
     35 H4C2        -2.8780     0.9500    -3.7110 hc         1 LAN       0.043700
     36 H3          -1.0690    -0.9480    -3.8700 hc         1 LAN       0.044700
     37 H261        -1.0260     1.8630    -7.1520 hc         1 LAN       0.035533
     38 H262        -1.3080     2.4550    -5.5210 hc         1 LAN       0.035533
     39 H263         0.3330     2.1180    -6.0980 hc         1 LAN       0.035533
     40 H271        -2.2380    -0.2550    -7.2570 hc         1 LAN       0.035533
     41 H272        -2.4580    -1.2270    -5.8030 hc         1 LAN       0.035533
     42 H273        -3.0490     0.4410    -5.8630 hc         1 LAN       0.035533
     43 H28          0.0190    -1.6910    -6.0490 h1         1 LAN       0.025700
     44 H29          1.1290    -1.1950    -7.9870 ho         1 LAN       0.439000
     45 H301         2.1290     0.5260    -5.8520 hc         1 LAN       0.044200
     46 H302         2.4350    -1.1910    -6.0660 hc         1 LAN       0.044200
     47 H311         2.6720    -0.5700    -3.6910 hc         1 LAN       0.041700
     48 H312         1.3850    -1.7470    -3.9120 hc         1 LAN       0.041700
     49 H2C1         2.1530     1.7490    -2.7710 hc         1 LAN       0.034367
     50 H2C2         1.4280     2.1110    -4.3090 hc         1 LAN       0.034367
     51 H2C3         0.5280     2.3990    -2.8180 hc         1 LAN       0.034367
     52 H231         2.1480    -1.5940    -1.6180 hc         1 LAN       0.041700
     53 H232         2.5890     0.0690    -1.2900 hc         1 LAN       0.041700
     54 H221         1.5230    -2.0240     0.5640 hc         1 LAN       0.040200
     55 H222         2.6780    -0.7590     0.8440 hc         1 LAN       0.040200
     56 H111         2.0020     1.5540     1.3510 hc         1 LAN       0.033700
     57 H112         0.9490     1.7690    -0.0390 hc         1 LAN       0.033700
     58 H113         0.3400     2.0510     1.5850 hc         1 LAN       0.033700
     59 H8C1        -2.2040    -2.1280    -0.1300 hc         1 LAN       0.033367
     60 H8C2        -0.5230    -2.6270    -0.2010 hc         1 LAN       0.033367
     61 H8C3        -1.3400    -2.4450     1.3590 hc         1 LAN       0.033367
     62 H9C1        -2.8320     0.0310     1.1100 hc         1 LAN       0.042700
     63 H9C2        -1.7530     1.4060     0.9940 hc         1 LAN       0.042700
     64 H211        -1.9320    -0.6240     3.2260 hc         1 LAN       0.040200
     65 H212        -1.3050     1.0130     3.2740 hc         1 LAN       0.040200
     66 H12          0.1590    -1.5940     2.6770 hc         1 LAN       0.046700
     67 H13          1.1460     1.0330     3.8000 hc         1 LAN       0.046700
     68 H201         2.6530    -1.5990     3.4000 hc         1 LAN       0.032033
     69 H202         3.0990     0.0260     2.8150 hc         1 LAN       0.032033
     70 H203         3.1800    -0.3300     4.5220 hc         1 LAN       0.032033
     71 H141        -0.5050    -0.2360     5.2260 hc         1 LAN       0.040700
     72 H142         0.5490    -1.6280     5.1960 hc         1 LAN       0.040700
     73 H151         2.2410    -0.4180     6.5650 hc         1 LAN       0.042700
     74 H152         1.3530     1.0820     6.4060 hc         1 LAN       0.042700
     75 H16          0.7850    -1.2880     8.1970 ha         1 LAN       0.164000
     76 H191        -2.3570    -0.3450     9.3420 hc         1 LAN       0.038200
     77 H192        -0.8560    -1.0760     9.9230 hc         1 LAN       0.038200
     78 H193        -1.2240     0.6080    10.3160 hc         1 LAN       0.038200
     79 H181        -0.7300     1.9050     6.7630 hc         1 LAN       0.038200
     80 H182        -2.2640     1.4710     7.5090 hc         1 LAN       0.038200
     81 H183        -1.0760     2.4190     8.4160 hc         1 LAN       0.038200
@<TRIPOS>BOND
     1     1     2 1   
     2     1    14 2   
     3     1    19 1   
     4     2     3 1   
     5     2    32 1   
     6     2    33 1   
     7     3     4 1   
     8     3    34 1   
     9     3    35 1   
    10     4     5 1   
    11     4    12 1   
    12     4    36 1   
    13     5     6 1   
    14     5     7 1   
    15     5     8 1   
    16     6    37 1   
    17     6    38 1   
    18     6    39 1   
    19     7    40 1   
    20     7    41 1   
    21     7    42 1   
    22     8     9 1   
    23     8    10 1   
    24     8    43 1   
    25     9    44 1   
    26    10    11 1   
    27    10    45 1   
    28    10    46 1   
    29    11    12 1   
    30    11    47 1   
    31    11    48 1   
    32    12    13 1   
    33    12    14 1   
    34    13    49 1   
    35    13    50 1   
    36    13    51 1   
    37    14    15 1   
    38    15    16 1   
    39    15    52 1   
    40    15    53 1   
    41    16    17 1   
    42    16    54 1   
    43    16    55 1   
    44    17    18 1   
    45    17    19 1   
    46    17    23 1   
    47    18    56 1   
    48    18    57 1   
    49    18    58 1   
    50    19    20 1   
    51    19    21 1   
    52    20    59 1   
    53    20    60 1   
    54    20    61 1   
    55    21    22 1   
    56    21    62 1   
    57    21    63 1   
    58    22    23 1   
    59    22    64 1   
    60    22    65 1   
    61    23    24 1   
    62    23    66 1   
    63    24    25 1   
    64    24    26 1   
    65    24    67 1   
    66    25    68 1   
    67    25    69 1   
    68    25    70 1   
    69    26    27 1   
    70    26    71 1   
    71    26    72 1   
    72    27    28 1   
    73    27    73 1   
    74    27    74 1   
    75    28    29 2   
    76    28    75 1   
    77    29    30 1   
    78    29    31 1   
    79    30    76 1   
    80    30    77 1   
    81    30    78 1   
    82    31    79 1   
    83    31    80 1   
    84    31    81 1   
@<TRIPOS>SUBSTRUCTURE
     1 LAN         1 TEMP              0 ****  ****    0 ROOT
