@<TRIPOS>MOLECULE
LAN
   81    84     1     0     0
SMALL
abcg2


@<TRIPOS>ATOM
      1 C6          -0.6830    -0.0430    -1.1710 c2         1 LAN      -0.095400
      2 C5          -1.9420     0.4410    -1.8320 c6         1 LAN      -0.034200
      3 C4          -1.7240     0.9960    -3.2300 c6         1 LAN      -0.069400
      4 C3          -0.7280     0.1260    -3.9860 c6         1 LAN      -0.046700
      5 C25         -0.7620     0.3000    -5.5300 c6         1 LAN      -0.023000
      6 C26         -0.4670     1.7280    -5.9990 c3         1 LAN      -0.079600
      7 C27         -2.1670    -0.0740    -6.0300 c3         1 LAN      -0.079600
      8 C28          0.2340    -0.7110    -6.1230 c6         1 LAN       0.176300
      9 O29          0.2760    -0.5460    -7.5270 oh         1 LAN      -0.659000
     10 C30          1.6220    -0.5980    -5.5120 c6         1 LAN      -0.111400
     11 C31          1.5870    -0.8000    -4.0050 c6         1 LAN      -0.064400
     12 C1           0.6570     0.1990    -3.2920 c6         1 LAN       0.010200
     13 C2           1.3100     1.5960    -3.3090 c3         1 LAN      -0.079100
     14 C24          0.4790    -0.1910    -1.8190 c2         1 LAN      -0.113400
     15 C23          1.7310    -0.6740    -1.1180 c6         1 LAN      -0.034200
     16 C22          1.6470    -0.9390     0.3970 c6         1 LAN      -0.059400
     17 C10          0.5260    -0.1430     1.0460 c5         1 LAN      -0.029000
     18 C11          0.8620     1.3540     0.9680 c3         1 LAN      -0.081100
     19 C7          -0.7870    -0.4640     0.2780 c5         1 LAN      -0.008800
     20 C8          -1.1400    -1.9650     0.2710 c3         1 LAN      -0.079100
     21 C9          -1.8310     0.2370     1.1540 c5         1 LAN      -0.069400
     22 C21         -1.3400    -0.0290     2.5900 c5         1 LAN      -0.075400
     23 C12          0.1380    -0.5050     2.4980 c5         1 LAN      -0.051700
     24 C13          0.9980     0.0370     3.6500 c3         1 LAN      -0.049700
     25 C20          2.4700    -0.3570     3.5260 c3         1 LAN      -0.087100
     26 C14          0.4350    -0.4510     4.9930 c3         1 LAN      -0.074400
     27 C15          0.9930     0.2820     6.2170 c3         1 LAN      -0.038200
     28 C16          0.4190    -0.2540     7.4930 c2         1 LAN      -0.222200
     29 C17         -0.5130     0.3040     8.2710 c2         1 LAN      -0.114400
     30 C19         -1.0060    -0.3880     9.5090 c3         1 LAN      -0.055400
     31 C18         -1.1650     1.6290     8.0060 c3         1 LAN      -0.055400
     32 H5C1        -2.6620    -0.3870    -1.8740 hc         1 LAN       0.045200
     33 H5C2        -2.4180     1.2020    -1.2070 hc         1 LAN       0.045200
     34 H4C1        -1.3660     2.0250    -3.1630 hc         1 LAN       0.043700
     35 H4C2        -2.6830     1.0480    -3.7470 hc         1 LAN       0.043700
     36 H3          -1.0550    -0.9140    -3.8280 hc         1 LAN       0.044700
     37 H261        -0.7280     1.8510    -7.0510 hc         1 LAN       0.035533
     38 H262        -1.0620     2.4490    -5.4360 hc         1 LAN       0.035533
     39 H263         0.5760     2.0190    -5.8900 hc         1 LAN       0.035533
     40 H271        -2.1790    -0.1810    -7.1140 hc         1 LAN       0.035533
     41 H272        -2.5050    -1.0180    -5.5950 hc         1 LAN       0.035533
     42 H273        -2.9040     0.6900    -5.7820 hc         1 LAN       0.035533
     43 H28         -0.1510    -1.7150    -5.8750 h1         1 LAN       0.025700
     44 H29          0.8810    -1.2050    -7.8830 ho         1 LAN       0.439000
     45 H301         2.0640     0.3690    -5.7700 hc         1 LAN       0.044200
     46 H302         2.2740    -1.3570    -5.9570 hc         1 LAN       0.044200
     47 H311         2.6030    -0.7320    -3.6120 hc         1 LAN       0.041700
     48 H312         1.2400    -1.8190    -3.7970 hc         1 LAN       0.041700
     49 H2C1         2.0820     1.6660    -2.5400 hc         1 LAN       0.034367
     50 H2C2         1.7970     1.8280    -4.2550 hc         1 LAN       0.034367
     51 H2C3         0.5930     2.3910    -3.1120 hc         1 LAN       0.034367
     52 H231         2.0830    -1.5880    -1.6030 hc         1 LAN       0.041700
     53 H232         2.5230     0.0590    -1.3060 hc         1 LAN       0.041700
     54 H221         1.4980    -2.0040     0.5850 hc         1 LAN       0.040200
     55 H222         2.6130    -0.6950     0.8390 hc         1 LAN       0.040200
     56 H111         1.8460     1.5450     1.3970 hc         1 LAN       0.033700
     57 H112         0.8860     1.7140    -0.0610 hc         1 LAN       0.033700
     58 H113         0.1530     1.9740     1.5180 hc         1 LAN       0.033700
     59 H8C1        -2.0630    -2.1110    -0.2940 hc         1 LAN       0.033367
     60 H8C2        -0.3740    -2.5740    -0.2080 hc         1 LAN       0.033367
     61 H8C3        -1.3170    -2.3670     1.2700 hc         1 LAN       0.033367
     62 H9C1        -2.8420    -0.1410     0.9810 hc         1 LAN       0.042700
     63 H9C2        -1.8640     1.3100     0.9510 hc         1 LAN       0.042700
     64 H211        -1.9610    -0.7740     3.0890 hc         1 LAN       0.040200
     65 H212        -1.4110     0.8800     3.1940 hc         1 LAN       0.040200
     66 H12          0.1670    -1.5990     2.5860 hc         1 LAN       0.046700
     67 H13          0.9280     1.1330     3.6430 hc         1 LAN       0.046700
     68 H201         2.5700    -1.4320     3.3550 hc         1 LAN       0.032033
     69 H202         2.9710     0.1570     2.7080 hc         1 LAN       0.032033
     70 H203         3.0260    -0.1170     4.4330 hc         1 LAN       0.032033
     71 H141        -0.6510    -0.3310     5.0090 hc         1 LAN       0.040700
     72 H142         0.6200    -1.5280     5.0900 hc         1 LAN       0.040700
     73 H151         2.0810     0.1780     6.2540 hc         1 LAN       0.042700
     74 H152         0.7930     1.3500     6.1090 hc         1 LAN       0.042700
     75 H16          0.7940    -1.2330     7.7850 ha         1 LAN       0.164000
     76 H191        -2.0820    -0.5750     9.4500 hc         1 LAN       0.038200
     77 H192        -0.5080    -1.3430     9.6760 hc         1 LAN       0.038200
     78 H193        -0.8500     0.2350    10.3950 hc         1 LAN       0.038200
     79 H181        -0.7750     2.1430     7.1310 hc         1 LAN       0.038200
     80 H182        -2.2410     1.5010     7.8610 hc         1 LAN       0.038200
     81 H183        -1.0490     2.2950     8.8650 hc         1 LAN       0.038200
@<TRIPOS>BOND
     1     1     2 1   
     2     1    14 2   
     3     1    19 1   
     4     2     3 1   
     5     2    32 1   
     6     2    33 1   
     7     3     4 1   
     8     3    34 1   
     9     3    35 1   
    10     4     5 1   
    11     4    12 1   
    12     4    36 1   
    13     5     6 1   
    14     5     7 1   
    15     5     8 1   
    16     6    37 1   
    17     6    38 1   
    18     6    39 1   
    19     7    40 1   
    20     7    41 1   
    21     7    42 1   
    22     8     9 1   
    23     8    10 1   
    24     8    43 1   
    25     9    44 1   
    26    10    11 1   
    27    10    45 1   
    28    10    46 1   
    29    11    12 1   
    30    11    47 1   
    31    11    48 1   
    32    12    13 1   
    33    12    14 1   
    34    13    49 1   
    35    13    50 1   
    36    13    51 1   
    37    14    15 1   
    38    15    16 1   
    39    15    52 1   
    40    15    53 1   
    41    16    17 1   
    42    16    54 1   
    43    16    55 1   
    44    17    18 1   
    45    17    19 1   
    46    17    23 1   
    47    18    56 1   
    48    18    57 1   
    49    18    58 1   
    50    19    20 1   
    51    19    21 1   
    52    20    59 1   
    53    20    60 1   
    54    20    61 1   
    55    21    22 1   
    56    21    62 1   
    57    21    63 1   
    58    22    23 1   
    59    22    64 1   
    60    22    65 1   
    61    23    24 1   
    62    23    66 1   
    63    24    25 1   
    64    24    26 1   
    65    24    67 1   
    66    25    68 1   
    67    25    69 1   
    68    25    70 1   
    69    26    27 1   
    70    26    71 1   
    71    26    72 1   
    72    27    28 1   
    73    27    73 1   
    74    27    74 1   
    75    28    29 2   
    76    28    75 1   
    77    29    30 1   
    78    29    31 1   
    79    30    76 1   
    80    30    77 1   
    81    30    78 1   
    82    31    79 1   
    83    31    80 1   
    84    31    81 1   
@<TRIPOS>SUBSTRUCTURE
     1 LAN         1 TEMP              0 ****  ****    0 ROOT
