@<TRIPOS>MOLECULE
LAR
   60    62     1     0     0
SMALL
abcg2


@<TRIPOS>ATOM
      1 S1          20.1400     9.9630    81.2880 ss         1 LAR      -0.328600
      2 N1          20.3070     8.6970    79.0430 ns         1 LAR      -0.520900
      3 O1          17.8990    10.1140    74.3820 o          1 LAR      -0.488000
      4 O2          16.5460    10.1430    76.1800 os         1 LAR      -0.478100
      5 O3          16.6970     8.2390    79.1860 os         1 LAR      -0.486000
      6 O4          17.8480    10.2360    78.7950 oh         1 LAR      -0.664000
      7 C1          17.1680    10.7330    75.1350 c          1 LAR       0.600300
      8 C2          16.9110    12.1670    74.9670 ce         1 LAR      -0.294200
      9 C3          16.0220    12.9730    75.5750 c2         1 LAR      -0.014400
     10 C4          15.0300    12.5570    76.6240 c3         1 LAR      -0.057200
     11 C5          13.7160    12.0720    75.9910 c3         1 LAR      -0.034200
     12 C6          12.7190    11.5080    76.9570 c2         1 LAR      -0.212200
     13 C7          12.9540    11.2100    78.2390 ce         1 LAR      -0.188000
     14 C8          11.9970    10.5670    79.1240 ce         1 LAR      -0.192000
     15 C9          12.2920     9.9850    80.2940 c2         1 LAR      -0.195200
     16 C10         13.6510     9.8360    80.9160 c3         1 LAR      -0.037500
     17 C11         14.1620     8.3870    80.7560 c3         1 LAR      -0.063400
     18 C12         14.3400     7.9140    79.3120 c3         1 LAR      -0.067400
     19 C13         15.4590     8.5970    78.5440 c6         1 LAR       0.173300
     20 C14         15.4930     8.1840    77.0780 c6         1 LAR      -0.110400
     21 C15         16.7270     8.7020    76.3590 c6         1 LAR       0.176300
     22 C16         17.9970     8.4310    77.1580 c6         1 LAR      -0.155400
     23 C17         17.8570     8.8320    78.6300 c6         1 LAR       0.379000
     24 C18         19.0020     8.2640    79.4940 c5         1 LAR       0.142700
     25 C19         18.8810     8.6770    80.9770 c5         1 LAR       0.061600
     26 C20         20.9940     9.6160    79.7530 c          1 LAR       0.618600
     27 C21         15.9430    14.4140    75.1680 c3         1 LAR      -0.074900
     28 C22         13.6140    10.2200    82.4000 c3         1 LAR      -0.084100
     29 HN1         20.6810     8.4060    78.1520 hn         1 LAR       0.332500
     30 HO4         17.4410    10.6490    78.0220 ho         1 LAR       0.464000
     31 H21         17.5350    12.5880    74.1870 ha         1 LAR       0.205000
     32 H41         15.4430    11.7700    77.2440 hc         1 LAR       0.062200
     33 H42         14.8180    13.4130    77.2690 hc         1 LAR       0.062200
     34 H51         13.2530    12.8900    75.4290 hc         1 LAR       0.050700
     35 H52         13.9450    11.3010    75.2460 hc         1 LAR       0.050700
     36 H61         11.7400    11.2840    76.5400 ha         1 LAR       0.170000
     37 H71         13.9310    11.4220    78.6540 ha         1 LAR       0.172000
     38 H81         10.9680    10.5320    78.7730 ha         1 LAR       0.171000
     39 H91         11.4840     9.5090    80.8450 ha         1 LAR       0.169000
     40 H101        14.3600    10.5000    80.4180 hc         1 LAR       0.055700
     41 H111        15.1120     8.2970    81.2880 hc         1 LAR       0.047700
     42 H112        13.4570     7.7170    81.2580 hc         1 LAR       0.047700
     43 H121        14.5390     6.8380    79.3040 hc         1 LAR       0.051700
     44 H122        13.4120     8.0670    78.7560 hc         1 LAR       0.051700
     45 H131        15.3470     9.6810    78.6110 h1         1 LAR       0.053700
     46 H141        15.5050     7.0920    77.0160 hc         1 LAR       0.067700
     47 H142        14.5940     8.5390    76.5720 hc         1 LAR       0.067700
     48 H151        16.8130     8.2590    75.3690 h1         1 LAR       0.080700
     49 H161        18.1910     7.3570    77.1150 hc         1 LAR       0.075700
     50 H162        18.8430     8.9430    76.7030 hc         1 LAR       0.075700
     51 H181        18.9340     7.1780    79.4200 h1         1 LAR       0.077700
     52 H191        19.0790     7.8330    81.6310 h1         1 LAR       0.089700
     53 H192        17.8950     9.0750    81.1930 h1         1 LAR       0.089700
     54 H211        16.1820    15.0520    76.0250 hc         1 LAR       0.053700
     55 H212        16.6190    14.6520    74.3490 hc         1 LAR       0.053700
     56 H213        14.9200    14.6660    74.8720 hc         1 LAR       0.053700
     57 H221        14.6020    10.1070    82.8520 hc         1 LAR       0.036367
     58 H222        13.2950    11.2560    82.5290 hc         1 LAR       0.036367
     59 H223        12.9170     9.5790    82.9460 hc         1 LAR       0.036367
     60 O5          22.0480    10.1380    79.4300 o          1 LAR      -0.514000
@<TRIPOS>BOND
     1     1    25 1   
     2     1    26 1   
     3     2    24 1   
     4     2    26 1   
     5     2    29 1   
     6     3     7 2   
     7     4     7 1   
     8     4    21 1   
     9     5    19 1   
    10     5    23 1   
    11     6    23 1   
    12     6    30 1   
    13     7     8 1   
    14     8     9 2   
    15     8    31 1   
    16     9    10 1   
    17     9    27 1   
    18    10    11 1   
    19    10    32 1   
    20    10    33 1   
    21    11    12 1   
    22    11    34 1   
    23    11    35 1   
    24    12    13 2   
    25    12    36 1   
    26    13    14 1   
    27    13    37 1   
    28    14    15 2   
    29    14    38 1   
    30    15    16 1   
    31    15    39 1   
    32    16    17 1   
    33    16    28 1   
    34    16    40 1   
    35    17    18 1   
    36    17    41 1   
    37    17    42 1   
    38    18    19 1   
    39    18    43 1   
    40    18    44 1   
    41    19    20 1   
    42    19    45 1   
    43    20    21 1   
    44    20    46 1   
    45    20    47 1   
    46    21    22 1   
    47    21    48 1   
    48    22    23 1   
    49    22    49 1   
    50    22    50 1   
    51    23    24 1   
    52    24    25 1   
    53    24    51 1   
    54    25    52 1   
    55    25    53 1   
    56    26    60 2   
    57    27    54 1   
    58    27    55 1   
    59    27    56 1   
    60    28    57 1   
    61    28    58 1   
    62    28    59 1   
@<TRIPOS>SUBSTRUCTURE
     1 LAR         1 TEMP              0 ****  ****    0 ROOT
