@<TRIPOS>MOLECULE
LAR
   60    62     1     0     0
SMALL
No Charge or Current Charge


@<TRIPOS>ATOM
      1 S1          19.7380    10.3750    81.1250 ss         1 LAR      -0.328600
      2 N1          20.3290     8.9170    79.0220 ns         1 LAR      -0.520900
      3 O1          18.1440    10.0810    74.4140 o          1 LAR      -0.488000
      4 O2          16.5450    10.0590    76.0460 os         1 LAR      -0.478100
      5 O3          16.5950     8.2460    79.1490 os         1 LAR      -0.486000
      6 O4          17.6650    10.2160    78.5730 oh         1 LAR      -0.664000
      7 C1          17.3200    10.6720    75.0950 c          1 LAR       0.600300
      8 C2          17.0710    12.1380    74.9330 ce         1 LAR      -0.294200
      9 C3          16.1800    12.9600    75.5520 c2         1 LAR      -0.014400
     10 C4          15.1570    12.5820    76.6170 c3         1 LAR      -0.057200
     11 C5          13.8660    11.9790    76.0110 c3         1 LAR      -0.034200
     12 C6          12.8390    11.4870    77.0220 c2         1 LAR      -0.212200
     13 C7          13.0360    11.2550    78.3370 ce         1 LAR      -0.188000
     14 C8          12.0110    10.7010    79.2250 ce         1 LAR      -0.192000
     15 C9          12.2610    10.0770    80.4000 c2         1 LAR      -0.195200
     16 C10         13.6150     9.7740    81.0370 c3         1 LAR      -0.037500
     17 C11         14.0500     8.3060    80.7780 c3         1 LAR      -0.063400
     18 C12         14.2010     7.8980    79.2850 c3         1 LAR      -0.067400
     19 C13         15.3520     8.5840    78.4910 c6         1 LAR       0.173300
     20 C14         15.3940     8.1180    77.0150 c6         1 LAR      -0.110400
     21 C15         16.6550     8.6380    76.2870 c6         1 LAR       0.176300
     22 C16         17.9230     8.3080    77.1180 c6         1 LAR      -0.155400
     23 C17         17.7970     8.8020    78.5810 c6         1 LAR       0.379000
     24 C18         19.0350     8.3360    79.4390 c5         1 LAR       0.142700
     25 C19         18.9590     8.7070    80.9510 c5         1 LAR       0.061600
     26 C20         20.7310    10.0640    79.6560 c          1 LAR       0.618600
     27 C21         16.0940    14.4360    75.2000 c3         1 LAR      -0.074900
     28 C22         13.5780    10.0860    82.5490 c3         1 LAR      -0.084100
     29 HN1         20.8330     8.6530    78.1840 hn         1 LAR       0.332500
     30 HO4         17.1690    10.3890    77.7410 ho         1 LAR       0.464000
     31 H21         17.7270    12.5680    74.1800 ha         1 LAR       0.205000
     32 H41         15.6060    11.8850    77.3280 hc         1 LAR       0.062200
     33 H42         14.8830    13.4570    77.2190 hc         1 LAR       0.062200
     34 H51         13.4020    12.7310    75.3610 hc         1 LAR       0.050700
     35 H52         14.1420    11.1460    75.3540 hc         1 LAR       0.050700
     36 H61         11.8670    11.2680    76.5750 ha         1 LAR       0.170000
     37 H71         14.0020    11.4660    78.7880 ha         1 LAR       0.172000
     38 H81         10.9780    10.7880    78.8800 ha         1 LAR       0.171000
     39 H91         11.4180     9.6900    80.9760 ha         1 LAR       0.169000
     40 H101        14.3910    10.4240    80.6210 hc         1 LAR       0.055700
     41 H111        14.9990     8.1150    81.2940 hc         1 LAR       0.047700
     42 H112        13.3130     7.6380    81.2410 hc         1 LAR       0.047700
     43 H121        14.3480     6.8120    79.2510 hc         1 LAR       0.051700
     44 H122        13.2490     8.0800    78.7730 hc         1 LAR       0.051700
     45 H131        15.2070     9.6700    78.5270 h1         1 LAR       0.053700
     46 H141        15.3810     7.0200    76.9740 hc         1 LAR       0.067700
     47 H142        14.4930     8.4590    76.4880 hc         1 LAR       0.067700
     48 H151        16.7150     8.1280    75.3120 h1         1 LAR       0.080700
     49 H161        18.0770     7.2210    77.1150 hc         1 LAR       0.075700
     50 H162        18.8150     8.7390    76.6440 hc         1 LAR       0.075700
     51 H181        19.0650     7.2420    79.3530 h1         1 LAR       0.077700
     52 H191        19.5420     7.9900    81.5430 h1         1 LAR       0.089700
     53 H192        17.9320     8.7090    81.3390 h1         1 LAR       0.089700
     54 H211        16.3380    15.0640    76.0650 hc         1 LAR       0.053700
     55 H212        16.7880    14.7060    74.3950 hc         1 LAR       0.053700
     56 H213        15.0860    14.7050    74.8630 hc         1 LAR       0.053700
     57 H221        14.5620     9.9200    83.0030 hc         1 LAR       0.036367
     58 H222        13.2990    11.1330    82.7180 hc         1 LAR       0.036367
     59 H223        12.8500     9.4480    83.0640 hc         1 LAR       0.036367
     60 O5          21.6500    10.7630    79.2670 o          1 LAR      -0.514000
@<TRIPOS>BOND
     1     1    25 1   
     2     1    26 1   
     3     2    24 1   
     4     2    26 1   
     5     2    29 1   
     6     3     7 2   
     7     4     7 1   
     8     4    21 1   
     9     5    19 1   
    10     5    23 1   
    11     6    23 1   
    12     6    30 1   
    13     7     8 1   
    14     8     9 2   
    15     8    31 1   
    16     9    10 1   
    17     9    27 1   
    18    10    11 1   
    19    10    32 1   
    20    10    33 1   
    21    11    12 1   
    22    11    34 1   
    23    11    35 1   
    24    12    13 2   
    25    12    36 1   
    26    13    14 1   
    27    13    37 1   
    28    14    15 2   
    29    14    38 1   
    30    15    16 1   
    31    15    39 1   
    32    16    17 1   
    33    16    28 1   
    34    16    40 1   
    35    17    18 1   
    36    17    41 1   
    37    17    42 1   
    38    18    19 1   
    39    18    43 1   
    40    18    44 1   
    41    19    20 1   
    42    19    45 1   
    43    20    21 1   
    44    20    46 1   
    45    20    47 1   
    46    21    22 1   
    47    21    48 1   
    48    22    23 1   
    49    22    49 1   
    50    22    50 1   
    51    23    24 1   
    52    24    25 1   
    53    24    51 1   
    54    25    52 1   
    55    25    53 1   
    56    26    60 2   
    57    27    54 1   
    58    27    55 1   
    59    27    56 1   
    60    28    57 1   
    61    28    58 1   
    62    28    59 1   
@<TRIPOS>SUBSTRUCTURE
     1 LAR         1 TEMP              0 ****  ****    0 ROOT
