@<TRIPOS>MOLECULE
LAS
   48    48     1     0     0
SMALL
bcc


@<TRIPOS>ATOM
      1 C18          0.7510    -0.7200    -0.7090 c          1 LAS       0.602700
      2 O19          0.6110    -1.6330    -1.4800 o          1 LAS      -0.527100
      3 C9           2.1350    -0.2520    -0.2580 c5         1 LAS      -0.002600
      4 C10          3.0570    -1.4640     0.0540 c3         1 LAS       0.143100
      5 C11          2.7700    -2.1800     1.3830 c3         1 LAS      -0.089700
      6 C16          1.3420    -2.6990     1.5350 c3         1 LAS      -0.092600
      7 C12          3.7470    -3.3420     1.5690 c3         1 LAS      -0.092600
      8 O17          4.4020    -1.0430     0.0120 oh         1 LAS      -0.603800
      9 N8           2.0820     0.6860     0.8350 ns         1 LAS      -0.565900
     10 C6           2.7910     1.8270     0.6650 c          1 LAS       0.718500
     11 O7           2.8880     2.7200     1.4820 o          1 LAS      -0.629500
     12 C5           3.4410     1.7720    -0.7000 c5         1 LAS      -0.184700
     13 C20          3.4290     3.1120    -1.4190 c3         1 LAS      -0.070100
     14 C3           2.7170     0.6250    -1.4170 c5         1 LAS       0.163100
     15 O2           1.6400     1.0860    -2.1930 oh         1 LAS      -0.572800
     16 H10          2.9370    -2.1780    -0.7660 h1         1 LAS       0.097700
     17 H11          2.9480    -1.4580     2.1910 hc         1 LAS       0.039700
     18 H16          1.0830    -3.3980     0.7390 hc         1 LAS       0.040367
     19 H16A         1.2550    -3.2340     2.4810 hc         1 LAS       0.040367
     20 H16B         0.5870    -1.9120     1.5540 hc         1 LAS       0.040367
     21 H12          3.6280    -4.0760     0.7690 hc         1 LAS       0.040367
     22 H12A         4.7870    -3.0210     1.5770 hc         1 LAS       0.040367
     23 H12B         3.5520    -3.8490     2.5150 hc         1 LAS       0.040367
     24 HO17         4.6460    -0.6850     0.8730 ho         1 LAS       0.403000
     25 HN8          1.6760     0.4610     1.7320 hn         1 LAS       0.335500
     26 H5           4.4800     1.4720    -0.5350 hc         1 LAS       0.073700
     27 H20          4.0380     3.8340    -0.8780 hc         1 LAS       0.043033
     28 H20A         3.8480     3.0190    -2.4210 hc         1 LAS       0.043033
     29 H20B         2.4230     3.5190    -1.5040 hc         1 LAS       0.043033
     30 H3           3.4050     0.0360    -2.0290 h1         1 LAS       0.058700
     31 HO2          1.9770     1.3680    -3.0490 ho         1 LAS       0.408000
     32 S1          -0.5890     0.2000    -0.0290 ss         1 LAS      -0.287700
     33 C111        -1.9860    -0.5960    -0.8750 c3         1 LAS       0.042700
     34 C121        -3.2580     0.1790    -0.5640 c3         1 LAS      -0.050300
     35 C13         -4.4620    -0.4170    -1.3570 c          1 LAS       0.929600
     36 O5          -5.5050    -0.6300    -0.7220 o          1 LAS      -0.816300
     37 O6          -4.2500    -0.6030    -2.5700 o          1 LAS      -0.816300
     38 N2          -3.4850     0.2170     0.8570 ns         1 LAS      -0.527900
     39 C14         -4.0890     1.2440     1.4820 c          1 LAS       0.675100
     40 C15         -4.4730     0.9790     2.9170 c3         1 LAS      -0.179100
     41 O71         -4.3120     2.3200     0.9440 o          1 LAS      -0.626100
     42 H181        -1.8060    -0.5900    -1.9470 h1         1 LAS       0.080200
     43 H19         -2.0630    -1.6330    -0.5440 h1         1 LAS       0.080200
     44 H201        -3.1270     1.2110    -0.9020 h1         1 LAS       0.085700
     45 H22         -3.4740    -0.6680     1.3400 hn         1 LAS       0.291500
     46 H23         -4.2880     1.8640     3.5230 hc         1 LAS       0.044700
     47 H24         -5.5410     0.7630     2.9660 hc         1 LAS       0.044700
     48 H25         -3.9400     0.1360     3.3540 hc         1 LAS       0.044700
@<TRIPOS>BOND
     1     1     2 2   
     2     1     3 1   
     3     1    32 1   
     4     3     4 1   
     5     3     9 1   
     6     3    14 1   
     7     4     5 1   
     8     4     8 1   
     9     4    16 1   
    10     5     6 1   
    11     5     7 1   
    12     5    17 1   
    13     6    18 1   
    14     6    19 1   
    15     6    20 1   
    16     7    21 1   
    17     7    22 1   
    18     7    23 1   
    19     8    24 1   
    20     9    10 1   
    21     9    25 1   
    22    10    11 2   
    23    10    12 1   
    24    12    13 1   
    25    12    14 1   
    26    12    26 1   
    27    13    27 1   
    28    13    28 1   
    29    13    29 1   
    30    14    15 1   
    31    14    30 1   
    32    15    31 1   
    33    32    33 1   
    34    33    34 1   
    35    33    42 1   
    36    33    43 1   
    37    34    35 1   
    38    34    38 1   
    39    34    44 1   
    40    35    36 1   
    41    35    37 1   
    42    38    39 1   
    43    38    45 1   
    44    39    40 1   
    45    39    41 2   
    46    40    46 1   
    47    40    47 1   
    48    40    48 1   
@<TRIPOS>SUBSTRUCTURE
     1 LAS         1 TEMP              0 ****  ****    0 ROOT
