@<TRIPOS>MOLECULE
LAS
   48    48     1     0     0
SMALL
No Charge or Current Charge


@<TRIPOS>ATOM
      1 C18          0.7060    -0.6880    -0.9160 c          1 LAS       0.602700
      2 O19          0.5040    -1.7430    -1.5070 o          1 LAS      -0.527100
      3 C9           2.1170    -0.2220    -0.3740 c5         1 LAS      -0.002600
      4 C10          2.9790    -1.4750     0.0570 c3         1 LAS       0.166300
      5 C11          2.6210    -2.1420     1.4360 c3         1 LAS      -0.089700
      6 C16          1.1330    -2.5440     1.5910 c3         1 LAS      -0.092600
      7 C12          3.5140    -3.3780     1.7330 c3         1 LAS      -0.092600
      8 O17          4.3700    -1.1200     0.0980 oh         1 LAS      -0.666000
      9 N8           1.9250     0.7520     0.7330 ns         1 LAS      -0.498900
     10 C6           2.6250     1.9190     0.6170 c          1 LAS       0.576000
     11 O7           2.4320     2.8860     1.3360 o          1 LAS      -0.554000
     12 C5           3.4720     1.8160    -0.6520 c5         1 LAS      -0.184700
     13 C20          3.7110     3.1760    -1.3610 c3         1 LAS      -0.070100
     14 C3           2.7770     0.6960    -1.4860 c5         1 LAS       0.186300
     15 O2           1.8300     1.2470    -2.4050 oh         1 LAS      -0.635000
     16 H10          2.8430    -2.2400    -0.7220 h1         1 LAS       0.097700
     17 H11          2.8280    -1.4080     2.2260 hc         1 LAS       0.039700
     18 H16          0.8230    -3.2270     0.7910 hc         1 LAS       0.040367
     19 H16A         0.9680    -3.0540     2.5490 hc         1 LAS       0.040367
     20 H16B         0.4770    -1.6680     1.5840 hc         1 LAS       0.040367
     21 H12          3.3840    -4.1460     0.9600 hc         1 LAS       0.040367
     22 H12A         4.5760    -3.1100     1.7750 hc         1 LAS       0.040367
     23 H12B         3.2540    -3.8230     2.7010 hc         1 LAS       0.040367
     24 HO17         4.5310    -0.7130     0.9750 ho         1 LAS       0.442000
     25 HN8          1.2230     0.6910     1.4610 hn         1 LAS       0.335500
     26 H5           4.4500     1.4410    -0.3370 hc         1 LAS       0.073700
     27 H20          4.2730     3.8600    -0.7130 hc         1 LAS       0.043033
     28 H20A         4.2920     3.0460    -2.2830 hc         1 LAS       0.043033
     29 H20B         2.7670     3.6720    -1.6190 hc         1 LAS       0.043033
     30 H3           3.5240     0.1270    -2.0600 h1         1 LAS       0.058700
     31 HO2          2.3370     1.7980    -3.0400 ho         1 LAS       0.447000
     32 S1          -0.7020     0.3540    -0.3740 ss         1 LAS      -0.335600
     33 C111        -2.1170    -0.6370    -1.0410 c3         1 LAS       0.090600
     34 C121        -3.4780     0.0050    -0.6910 c3         1 LAS      -0.050300
     35 C13         -4.6340    -0.7680    -1.3810 c          1 LAS       0.719000
     36 O5          -4.7970    -1.9470    -1.0980 o          1 LAS      -0.711000
     37 O6          -5.3600    -0.1530    -2.1490 o          1 LAS      -0.711000
     38 N2          -3.7050     0.0730     0.7780 ns         1 LAS      -0.460900
     39 C14         -3.6150     1.2120     1.5490 c          1 LAS       0.608100
     40 C15         -3.8390     0.9850     3.0410 c3         1 LAS      -0.179100
     41 O71         -3.3850     2.3180     1.0810 o          1 LAS      -0.626100
     42 H181        -2.0150    -0.7070    -2.1320 h1         1 LAS       0.080200
     43 H19         -2.0700    -1.6530    -0.6270 h1         1 LAS       0.080200
     44 H201        -3.4910     1.0220    -1.1020 h1         1 LAS       0.085700
     45 H22         -3.9290    -0.7860     1.2680 hn         1 LAS       0.291500
     46 H23         -3.7700     1.9100     3.6260 hc         1 LAS       0.044700
     47 H24         -4.8040     0.4860     3.1870 hc         1 LAS       0.044700
     48 H25         -3.1310     0.2280     3.3970 hc         1 LAS       0.044700
@<TRIPOS>BOND
     1     1     2 2   
     2     1     3 1   
     3     1    32 1   
     4     3     4 1   
     5     3     9 1   
     6     3    14 1   
     7     4     5 1   
     8     4     8 1   
     9     4    16 1   
    10     5     6 1   
    11     5     7 1   
    12     5    17 1   
    13     6    18 1   
    14     6    19 1   
    15     6    20 1   
    16     7    21 1   
    17     7    22 1   
    18     7    23 1   
    19     8    24 1   
    20     9    10 1   
    21     9    25 1   
    22    10    11 2   
    23    10    12 1   
    24    12    13 1   
    25    12    14 1   
    26    12    26 1   
    27    13    27 1   
    28    13    28 1   
    29    13    29 1   
    30    14    15 1   
    31    14    30 1   
    32    15    31 1   
    33    32    33 1   
    34    33    34 1   
    35    33    42 1   
    36    33    43 1   
    37    34    35 1   
    38    34    38 1   
    39    34    44 1   
    40    35    36 1   
    41    35    37 1   
    42    38    39 1   
    43    38    45 1   
    44    39    40 1   
    45    39    41 2   
    46    40    46 1   
    47    40    47 1   
    48    40    48 1   
@<TRIPOS>SUBSTRUCTURE
     1 LAS         1 TEMP              0 ****  ****    0 ROOT
