@<TRIPOS>MOLECULE
LAV
   38    37     1     0     0
SMALL
bcc


@<TRIPOS>ATOM
      1 C            0.4290    -0.1780    -0.5950 c3         1 LAV       0.132800
      2 N            1.9470    -1.7650     0.6330 n8         1 LAV      -0.905800
      3 O           -1.9560     1.8330     0.6890 o          1 LAV      -0.830800
      4 C1          -2.1790     1.2660    -0.3980 c          1 LAV       0.926600
      5 N1          -0.7210    -0.6430     0.1520 n7         1 LAV      -0.776200
      6 C2          -3.1480    -0.9460     0.3330 c3         1 LAV      -0.048700
      7 C3          -1.9990    -0.2710    -0.4330 c3         1 LAV       0.038500
      8 CA           1.7350    -0.3990     0.1740 c3         1 LAV       0.156500
      9 CB           2.9160     0.0440    -0.6870 c3         1 LAV      -0.063400
     10 CG           4.2790     0.0530     0.0040 c3         1 LAV      -0.054700
     11 CD1          5.3760     0.3830    -1.0040 c3         1 LAV      -0.084100
     12 CD2          4.3220     1.0350     1.1710 c3         1 LAV      -0.084100
     13 H            0.5090    -0.6520    -1.5890 h1         1 LAV       0.035700
     14 HA           0.3250     0.8950    -0.7770 h1         1 LAV       0.035700
     15 HN           1.2090    -2.0410     1.2690 hn         1 LAV       0.334300
     16 HNA          1.9020    -2.4030    -0.1550 hn         1 LAV       0.334300
     17 OXT         -2.5590     1.8110    -1.4550 o          1 LAV      -0.830800
     18 HN1         -0.6690    -1.6530     0.1940 hn         1 LAV       0.300800
     19 H2          -3.0480    -0.6510     1.3830 hc         1 LAV       0.065700
     20 H3          -2.0710    -0.5920    -1.4880 h1         1 LAV       0.005700
     21 HAA          1.6870     0.2330     1.0670 h1         1 LAV       0.077700
     22 HB           2.9630    -0.6150    -1.5630 hc         1 LAV       0.033700
     23 HBA          2.7100     1.0480    -1.0770 hc         1 LAV       0.033700
     24 HG           4.4680    -0.9520     0.3960 hc         1 LAV       0.056700
     25 HD1          5.2250     1.3750    -1.4380 hc         1 LAV       0.026033
     26 HD1A         6.3620     0.3780    -0.5350 hc         1 LAV       0.026033
     27 HD1B         5.3970    -0.3360    -1.8250 hc         1 LAV       0.026033
     28 HD2          3.6250     0.7650     1.9650 hc         1 LAV       0.026033
     29 HD2A         5.3190     1.0730     1.6160 hc         1 LAV       0.026033
     30 HD2B         4.0720     2.0460     0.8380 hc         1 LAV       0.026033
     31 HG1         -4.6270    -0.6770    -1.2390 hc         1 LAV       0.019200
     32 HG1A        -5.3130    -1.0030     0.3500 hc         1 LAV       0.019200
     33 HG1B        -4.6670     0.5900    -0.0140 hc         1 LAV       0.019200
     34 HG2         -2.1720    -2.8880     0.6870 hc         1 LAV       0.019200
     35 HG2A        -3.9180    -2.9220     0.7860 hc         1 LAV       0.019200
     36 HG2B        -3.1360    -2.8080    -0.7880 hc         1 LAV       0.019200
     37 CG1         -4.5110    -0.4770    -0.1710 c3         1 LAV      -0.080600
     38 CG2         -3.0810    -2.4710     0.2500 c3         1 LAV      -0.080600
@<TRIPOS>BOND
     1     1     5 1   
     2     1     8 1   
     3     1    13 1   
     4     1    14 1   
     5     2     8 1   
     6     2    15 1   
     7     2    16 1   
     8     3     4 1   
     9     4     7 1   
    10     4    17 1   
    11     5     7 1   
    12     5    18 1   
    13     6     7 1   
    14     6    19 1   
    15     6    37 1   
    16     6    38 1   
    17     7    20 1   
    18     8     9 1   
    19     8    21 1   
    20     9    10 1   
    21     9    22 1   
    22     9    23 1   
    23    10    11 1   
    24    10    12 1   
    25    10    24 1   
    26    11    25 1   
    27    11    26 1   
    28    11    27 1   
    29    12    28 1   
    30    12    29 1   
    31    12    30 1   
    32    31    37 1   
    33    32    37 1   
    34    33    37 1   
    35    34    38 1   
    36    35    38 1   
    37    36    38 1   
@<TRIPOS>SUBSTRUCTURE
     1 LAV         1 TEMP              0 ****  ****    0 ROOT
