@<TRIPOS>MOLECULE
LAV
   38    37     1     0     0
SMALL
No Charge or Current Charge


@<TRIPOS>ATOM
      1 C            0.4120    -0.0410    -0.5820 c3         1 LAV       0.132800
      2 N            1.8950    -1.8000     0.4670 n8         1 LAV      -1.016200
      3 O           -2.5830     2.0440     0.4290 o          1 LAV      -0.725500
      4 C1          -2.3990     1.3610    -0.5740 c          1 LAV       0.716000
      5 N1          -0.7640    -0.5120     0.1910 n7         1 LAV      -0.831400
      6 C2          -3.2370    -0.9320     0.3750 c3         1 LAV      -0.048700
      7 C3          -2.1060    -0.1920    -0.4130 c3         1 LAV       0.038500
      8 CA           1.7640    -0.3540     0.1370 c3         1 LAV       0.156500
      9 CB           2.9760     0.1370    -0.7040 c3         1 LAV      -0.063400
     10 CG           4.3760     0.0200    -0.0310 c3         1 LAV      -0.054700
     11 CD1          5.4980     0.3960    -1.0260 c3         1 LAV      -0.084100
     12 CD2          4.4920     0.8620     1.2630 c3         1 LAV      -0.084100
     13 H            0.4210    -0.5110    -1.5760 h1         1 LAV       0.035700
     14 HA           0.3520     1.0450    -0.7380 h1         1 LAV       0.035700
     15 HN           1.1210    -2.0550     1.0890 hn         1 LAV       0.389500
     16 HNA          1.7160    -2.3480    -0.3810 hn         1 LAV       0.389500
     17 OXT         -2.4010     1.8350    -1.7050 o          1 LAV      -0.725500
     18 HN1         -0.6980    -1.5300     0.2710 hn         1 LAV       0.356000
     19 H2          -3.2360    -0.5440     1.4020 hc         1 LAV       0.065700
     20 H3          -2.1190    -0.6110    -1.4290 h1         1 LAV       0.005700
     21 HAA          1.7590     0.2080     1.0830 h1         1 LAV       0.077700
     22 HB           2.9900    -0.4200    -1.6500 hc         1 LAV       0.033700
     23 HBA          2.8100     1.1870    -0.9740 hc         1 LAV       0.033700
     24 HG           4.5360    -1.0300     0.2440 hc         1 LAV       0.056700
     25 HD1          5.4060     1.4420    -1.3430 hc         1 LAV       0.026033
     26 HD1A         6.4850     0.2620    -0.5670 hc         1 LAV       0.026033
     27 HD1B         5.4540    -0.2390    -1.9190 hc         1 LAV       0.026033
     28 HD2          3.7900     0.5110     2.0290 hc         1 LAV       0.026033
     29 HD2A         5.5020     0.7850     1.6840 hc         1 LAV       0.026033
     30 HD2B         4.2850     1.9200     1.0620 hc         1 LAV       0.026033
     31 HG1         -4.6950    -0.9710    -1.2630 hc         1 LAV       0.019200
     32 HG1A        -5.4150    -1.1860     0.3460 hc         1 LAV       0.019200
     33 HG1B        -4.8880     0.4190    -0.1730 hc         1 LAV       0.019200
     34 HG2         -2.0840    -2.7020     1.0080 hc         1 LAV       0.019200
     35 HG2A        -3.8320    -2.9510     0.9920 hc         1 LAV       0.019200
     36 HG2B        -2.9360    -2.9050    -0.5400 hc         1 LAV       0.019200
     37 CG1         -4.6420    -0.6490    -0.2160 c3         1 LAV      -0.080600
     38 CG2         -3.0050    -2.4640     0.4620 c3         1 LAV      -0.080600
@<TRIPOS>BOND
     1     1     5 1   
     2     1     8 1   
     3     1    13 1   
     4     1    14 1   
     5     2     8 1   
     6     2    15 1   
     7     2    16 1   
     8     3     4 1   
     9     4     7 1   
    10     4    17 1   
    11     5     7 1   
    12     5    18 1   
    13     6     7 1   
    14     6    19 1   
    15     6    37 1   
    16     6    38 1   
    17     7    20 1   
    18     8     9 1   
    19     8    21 1   
    20     9    10 1   
    21     9    22 1   
    22     9    23 1   
    23    10    11 1   
    24    10    12 1   
    25    10    24 1   
    26    11    25 1   
    27    11    26 1   
    28    11    27 1   
    29    12    28 1   
    30    12    29 1   
    31    12    30 1   
    32    31    37 1   
    33    32    37 1   
    34    33    37 1   
    35    34    38 1   
    36    35    38 1   
    37    36    38 1   
@<TRIPOS>SUBSTRUCTURE
     1 LAV         1 TEMP              0 ****  ****    0 ROOT
