@<TRIPOS>MOLECULE
LAW
   79    84     1     0     0
SMALL
abcg2


@<TRIPOS>ATOM
      1 N1          16.3570     5.7150    12.8700 n7         1 LAW      -0.866300
      2 C7          18.3700    11.3930    12.7230 cc         1 LAW       0.469700
      3 C8          20.1570    12.5380    12.4300 ca         1 LAW      -0.099600
      4 N2          19.4250    10.5710    13.1150 na         1 LAW      -0.271300
      5 C9          20.5750    11.3020    12.9190 ca         1 LAW       0.152500
      6 O1          14.8400     3.8100    12.4750 o          1 LAW      -0.541500
      7 C1          13.7840     6.1700    11.8970 c3         1 LAW      -0.360400
      8 O5          14.2350     9.4190    11.4010 os         1 LAW      -0.446000
      9 C5          18.5360     8.9160    14.7970 c5         1 LAW       0.081300
     10 C6          18.3470     7.3970    14.6670 c5         1 LAW       0.113300
     11 N3          18.7890    12.5770    12.3120 nd         1 LAW      -0.524100
     12 C4          19.4040     9.2040    13.5750 c5         1 LAW       0.314300
     13 O4          19.4790     6.7130    15.1860 oh         1 LAW      -0.708000
     14 C3          18.2870     7.1900    13.1510 c5         1 LAW       0.173300
     15 O3          19.2130     9.3010    15.9770 oh         1 LAW      -0.704000
     16 C2          16.8810     7.0550    12.5870 c3         1 LAW       0.188800
     17 N4          21.8390    10.9300    13.1390 nb         1 LAW      -0.215000
     18 N           13.6830     6.8650    14.2970 n8         1 LAW      -1.027200
     19 C           12.9770     6.2050    13.1920 c3         1 LAW       0.183800
     20 O           15.7330     5.1070    10.5430 o          1 LAW      -0.541500
     21 C10         22.7030    11.8960    12.8350 ca         1 LAW       0.185900
     22 C11         21.1680    13.4820    12.1450 ca         1 LAW       0.450900
     23 C12         17.0170    11.0000    12.7270 cg         1 LAW      -0.105200
     24 C13         15.8470    10.7350    12.6200 c1         1 LAW      -0.129100
     25 C14         14.4400    10.3980    12.4110 c3         1 LAW       0.242700
     26 C15         14.3460     9.8620    10.0500 c3         1 LAW       0.158600
     27 C16         15.7700    10.0640     9.5720 c5         1 LAW       0.094300
     28 C17         17.5060     8.6970     8.7770 c5         1 LAW       0.274300
     29 C18         17.3300     9.8670     7.7870 c5         1 LAW       0.139300
     30 C19         15.8910    10.3140     8.0640 c5         1 LAW       0.148300
     31 C20         16.5220     6.9150     7.2320 cc         1 LAW       0.400700
     32 C21         17.5600     5.1890     7.9380 ca         1 LAW      -0.076600
     33 C22         18.0570     6.2600     8.6720 ca         1 LAW       0.155500
     34 C23         19.3620     4.9450     9.8770 ca         1 LAW       0.183900
     35 C24         18.0510     3.9130     8.2750 ca         1 LAW       0.457900
     36 N10         18.9650     3.8260     9.2600 nb         1 LAW      -0.295000
     37 N11         17.6510     2.7890     7.6570 nv         1 LAW      -1.067900
     38 N5          22.4460    13.1210    12.3630 nb         1 LAW      -0.300000
     39 N6          20.9050    14.7070    11.6720 nv         1 LAW      -1.064900
     40 N7          17.3920     7.3730     8.2000 na         1 LAW      -0.309300
     41 N8          16.6000     5.6220     7.0390 nd         1 LAW      -0.543100
     42 N9          18.9650     6.1950     9.6490 nb         1 LAW      -0.222000
     43 O2          18.8940     8.3640    12.5560 os         1 LAW      -0.443000
     44 O6          16.5110     8.8570     9.7850 os         1 LAW      -0.445000
     45 O7          18.2030    10.9320     8.1280 oh         1 LAW      -0.685000
     46 O8          15.6630    11.6500     7.6690 oh         1 LAW      -0.679000
     47 S           15.2040     5.0830    11.8880 s6         1 LAW       1.214100
     48 H1          16.1420     5.5340    13.8440 hn         1 LAW       0.474000
     49 H2          14.1550     7.1610    11.6330 h1         1 LAW       0.115700
     50 H3          13.1690     5.7950    11.0760 h1         1 LAW       0.115700
     51 H4          17.5740     9.4210    14.7080 h1         1 LAW       0.064700
     52 H5          17.4330     7.0630    15.1680 h1         1 LAW       0.051700
     53 H6          20.4440     8.9620    13.8060 h2         1 LAW       0.117700
     54 H7          19.7460     7.1830    15.9910 ho         1 LAW       0.522000
     55 H8          18.8760     6.3140    12.8760 h1         1 LAW       0.107700
     56 H9          18.5620     9.5220    16.6550 ho         1 LAW       0.515000
     57 H10         16.9300     7.1830    11.5100 h1         1 LAW       0.081200
     58 H11         16.2310     7.8320    12.9930 h1         1 LAW       0.081200
     59 H12         13.0110     7.3170    14.9060 hn         1 LAW       0.399500
     60 H13         14.1660     6.1870    14.8730 hn         1 LAW       0.399500
     61 H15         12.0800     6.7840    12.9680 h1         1 LAW       0.046200
     62 H16         12.6480     5.1920    13.4410 h1         1 LAW       0.046200
     63 H17         23.7520    11.6640    12.9880 h5         1 LAW       0.050100
     64 H18         13.8800    11.3120    12.1800 h1         1 LAW       0.068700
     65 H19         14.0270     9.9720    13.3270 h1         1 LAW       0.068700
     66 H20         13.7880    10.7950     9.9100 h1         1 LAW       0.053200
     67 H21         13.8780     9.0760     9.4560 h1         1 LAW       0.053200
     68 H22         16.2470    10.8910    10.1010 h1         1 LAW       0.091700
     69 H23         18.4940     8.7400     9.2350 h2         1 LAW       0.117700
     70 H24         17.4820     9.5550     6.7530 h1         1 LAW       0.066700
     71 H25         15.2140     9.6370     7.5350 h1         1 LAW       0.038700
     72 H26         15.8640     7.5800     6.6970 h5         1 LAW       0.054800
     73 H27         20.0960     4.8130    10.6640 h5         1 LAW       0.045100
     74 H28         17.9660     1.8970     7.9980 hn         1 LAW       0.503500
     75 H29         16.9060     2.8160     6.9810 hn         1 LAW       0.503500
     76 H30         21.6620    15.3360    11.4620 hn         1 LAW       0.509500
     77 H31         19.9620    14.9920    11.4720 hn         1 LAW       0.509500
     78 H32         19.1050    10.6750     7.8960 ho         1 LAW       0.512000
     79 H33         14.7140    11.7730     7.5460 ho         1 LAW       0.502000
@<TRIPOS>BOND
     1     1    16 1   
     2     1    47 1   
     3     1    48 1   
     4     2     4 1   
     5     2    11 2   
     6     2    23 1   
     7     3     5 ar  
     8     3    11 1   
     9     3    22 ar  
    10     4     5 1   
    11     4    12 1   
    12     5    17 ar  
    13     6    47 2   
    14     7    19 1   
    15     7    47 1   
    16     7    49 1   
    17     7    50 1   
    18     8    25 1   
    19     8    26 1   
    20     9    10 1   
    21     9    12 1   
    22     9    15 1   
    23     9    51 1   
    24    10    13 1   
    25    10    14 1   
    26    10    52 1   
    27    12    43 1   
    28    12    53 1   
    29    13    54 1   
    30    14    16 1   
    31    14    43 1   
    32    14    55 1   
    33    15    56 1   
    34    16    57 1   
    35    16    58 1   
    36    17    21 ar  
    37    18    19 1   
    38    18    59 1   
    39    18    60 1   
    40    19    61 1   
    41    19    62 1   
    42    20    47 2   
    43    21    38 ar  
    44    21    63 1   
    45    22    38 ar  
    46    22    39 1   
    47    23    24 3   
    48    24    25 1   
    49    25    64 1   
    50    25    65 1   
    51    26    27 1   
    52    26    66 1   
    53    26    67 1   
    54    27    30 1   
    55    27    44 1   
    56    27    68 1   
    57    28    29 1   
    58    28    40 1   
    59    28    44 1   
    60    28    69 1   
    61    29    30 1   
    62    29    45 1   
    63    29    70 1   
    64    30    46 1   
    65    30    71 1   
    66    31    40 1   
    67    31    41 2   
    68    31    72 1   
    69    32    33 ar  
    70    32    35 ar  
    71    32    41 1   
    72    33    40 1   
    73    33    42 ar  
    74    34    36 ar  
    75    34    42 ar  
    76    34    73 1   
    77    35    36 ar  
    78    35    37 1   
    79    37    74 1   
    80    37    75 1   
    81    39    76 1   
    82    39    77 1   
    83    45    78 1   
    84    46    79 1   
@<TRIPOS>SUBSTRUCTURE
     1 LAW         1 TEMP              0 ****  ****    0 ROOT
