@<TRIPOS>MOLECULE
LAW
   79    84     1     0     0
SMALL
No Charge or Current Charge


@<TRIPOS>ATOM
      1 N1          15.3600     5.7110    12.1120 n7         1 LAW      -0.866300
      2 C7          19.0460    10.7650    12.5510 cc         1 LAW       0.469700
      3 C8          21.1550    11.1450    12.4150 ca         1 LAW      -0.099600
      4 N2          19.7100     9.5910    12.9380 na         1 LAW      -0.271300
      5 C9          21.0490     9.8470    12.8470 ca         1 LAW       0.152500
      6 O1          13.4380     4.3460    11.2530 o          1 LAW      -0.541500
      7 C1          12.8970     6.7590    12.2800 c3         1 LAW      -0.360400
      8 O5          14.4060    10.0730    11.8170 os         1 LAW      -0.446000
      9 C5          17.9500     8.3240    14.4240 c5         1 LAW       0.081300
     10 C6          17.5310     6.8350    14.2880 c5         1 LAW       0.113300
     11 N3          19.9080    11.7440    12.2220 nd         1 LAW      -0.524100
     12 C4          19.1200     8.3250    13.3860 c5         1 LAW       0.314300
     13 O4          18.4510     6.0140    15.0200 oh         1 LAW      -0.708000
     14 C3          17.6230     6.6380    12.7290 c5         1 LAW       0.173300
     15 O3          18.3480     8.6330    15.7770 oh         1 LAW      -0.704000
     16 C2          16.2920     6.8540    11.9580 c3         1 LAW       0.188800
     17 N4          22.1320     9.0810    13.0880 nb         1 LAW      -0.215000
     18 N           13.8150     6.2880    14.4880 n8         1 LAW      -1.027200
     19 C           12.6180     6.1590    13.6550 c3         1 LAW       0.183800
     20 O           14.1990     6.4170     9.9970 o          1 LAW      -0.541500
     21 C10         23.3310     9.6730    12.8730 ca         1 LAW       0.185900
     22 C11         22.4440    11.6790    12.2210 ca         1 LAW       0.450900
     23 C12         17.6390    10.9600    12.4640 cg         1 LAW      -0.105200
     24 C13         16.4410    11.1470    12.3660 c1         1 LAW      -0.129100
     25 C14         14.9940    11.3320    12.2040 c3         1 LAW       0.242700
     26 C15         13.8240    10.0050    10.4910 c3         1 LAW       0.158600
     27 C16         14.9050    10.1480     9.3770 c5         1 LAW       0.094300
     28 C17         16.9200     9.3570     8.5140 c5         1 LAW       0.274300
     29 C18         15.9300     9.5700     7.3030 c5         1 LAW       0.139300
     30 C19         14.5430     9.4930     8.0150 c5         1 LAW       0.148300
     31 C20         17.1680     6.8390     8.2200 cc         1 LAW       0.400700
     32 C21         19.1880     6.5910     8.9190 ca         1 LAW      -0.076600
     33 C22         18.9390     7.9360     9.0120 ca         1 LAW       0.155500
     34 C23         21.0550     8.2790     9.8040 ca         1 LAW       0.183900
     35 C24         20.4590     6.1240     9.3160 ca         1 LAW       0.457900
     36 N10         21.4010     6.9690     9.7650 nb         1 LAW      -0.295000
     37 N11         20.8090     4.8100     9.2650 nv         1 LAW      -1.067900
     38 N5          23.5420    10.9420    12.4460 nb         1 LAW      -0.300000
     39 N6          22.6540    12.9520    11.7910 nv         1 LAW      -1.064900
     40 N7          17.6560     8.0990     8.5800 na         1 LAW      -0.309300
     41 N8          18.0900     5.8790     8.4210 nd         1 LAW      -0.543100
     42 N9          19.8640     8.8150     9.4460 nb         1 LAW      -0.222000
     43 O2          18.5960     7.6080    12.2560 os         1 LAW      -0.443000
     44 O6          16.1320     9.4740     9.7180 os         1 LAW      -0.445000
     45 O7          16.0700    10.8620     6.6930 oh         1 LAW      -0.685000
     46 O8          13.5380    10.2090     7.2760 oh         1 LAW      -0.679000
     47 S           13.9330     5.7240    11.2590 s6         1 LAW       1.214100
     48 H1          14.9460     5.7810    13.0540 hn         1 LAW       0.474000
     49 H2          13.3780     7.7370    12.3560 h1         1 LAW       0.115700
     50 H3          11.9610     6.8590    11.7220 h1         1 LAW       0.115700
     51 H4          17.1200     8.9690    14.1080 h1         1 LAW       0.064700
     52 H5          16.5100     6.6750    14.6570 h1         1 LAW       0.051700
     53 H6          19.9540     7.7480    13.8070 h2         1 LAW       0.117700
     54 H7          18.6950     6.5790    15.7950 ho         1 LAW       0.522000
     55 H8          17.9900     5.6320    12.4860 h1         1 LAW       0.107700
     56 H9          18.4260     9.6150    15.8520 ho         1 LAW       0.515000
     57 H10         16.5590     6.9780    10.9010 h1         1 LAW       0.081200
     58 H11         15.8330     7.7990    12.2820 h1         1 LAW       0.081200
     59 H12         13.9080     7.2740    14.7650 hn         1 LAW       0.399500
     60 H13         13.6350     5.8230    15.3880 hn         1 LAW       0.399500
     61 H15         11.7900     6.6960    14.1400 h1         1 LAW       0.046200
     62 H16         12.3380     5.0990    13.5680 h1         1 LAW       0.046200
     63 H17         24.2150     9.0670    13.0610 h5         1 LAW       0.050100
     64 H18         14.8060    12.1220    11.4640 h1         1 LAW       0.068700
     65 H19         14.5760    11.6670    13.1620 h1         1 LAW       0.068700
     66 H20         13.0610    10.7820    10.3570 h1         1 LAW       0.053200
     67 H21         13.3250     9.0370    10.3620 h1         1 LAW       0.053200
     68 H22         15.1230    11.2180     9.2470 h1         1 LAW       0.091700
     69 H23         17.6780    10.1510     8.4940 h2         1 LAW       0.117700
     70 H24         16.0330     8.7790     6.5480 h1         1 LAW       0.066700
     71 H25         14.2450     8.4450     8.1560 h1         1 LAW       0.038700
     72 H26         16.1620     6.6880     7.8460 h5         1 LAW       0.054800
     73 H27         21.8150     8.9740    10.1560 h5         1 LAW       0.045100
     74 H28         21.6060     4.5070     9.8180 hn         1 LAW       0.503500
     75 H29         20.0590     4.1360     9.1320 hn         1 LAW       0.503500
     76 H30         23.5640    13.1790    11.3980 hn         1 LAW       0.509500
     77 H31         21.8540    13.4490    11.4080 hn         1 LAW       0.509500
     78 H32         15.1310    11.1410     6.5450 ho         1 LAW       0.512000
     79 H33         12.6720     9.7760     7.4580 ho         1 LAW       0.502000
@<TRIPOS>BOND
     1     1    16 1   
     2     1    47 1   
     3     1    48 1   
     4     2     4 1   
     5     2    11 2   
     6     2    23 1   
     7     3     5 ar  
     8     3    11 1   
     9     3    22 ar  
    10     4     5 1   
    11     4    12 1   
    12     5    17 ar  
    13     6    47 2   
    14     7    19 1   
    15     7    47 1   
    16     7    49 1   
    17     7    50 1   
    18     8    25 1   
    19     8    26 1   
    20     9    10 1   
    21     9    12 1   
    22     9    15 1   
    23     9    51 1   
    24    10    13 1   
    25    10    14 1   
    26    10    52 1   
    27    12    43 1   
    28    12    53 1   
    29    13    54 1   
    30    14    16 1   
    31    14    43 1   
    32    14    55 1   
    33    15    56 1   
    34    16    57 1   
    35    16    58 1   
    36    17    21 ar  
    37    18    19 1   
    38    18    59 1   
    39    18    60 1   
    40    19    61 1   
    41    19    62 1   
    42    20    47 2   
    43    21    38 ar  
    44    21    63 1   
    45    22    38 ar  
    46    22    39 1   
    47    23    24 3   
    48    24    25 1   
    49    25    64 1   
    50    25    65 1   
    51    26    27 1   
    52    26    66 1   
    53    26    67 1   
    54    27    30 1   
    55    27    44 1   
    56    27    68 1   
    57    28    29 1   
    58    28    40 1   
    59    28    44 1   
    60    28    69 1   
    61    29    30 1   
    62    29    45 1   
    63    29    70 1   
    64    30    46 1   
    65    30    71 1   
    66    31    40 1   
    67    31    41 2   
    68    31    72 1   
    69    32    33 ar  
    70    32    35 ar  
    71    32    41 1   
    72    33    40 1   
    73    33    42 ar  
    74    34    36 ar  
    75    34    42 ar  
    76    34    73 1   
    77    35    36 ar  
    78    35    37 1   
    79    37    74 1   
    80    37    75 1   
    81    39    76 1   
    82    39    77 1   
    83    45    78 1   
    84    46    79 1   
@<TRIPOS>SUBSTRUCTURE
     1 LAW         1 TEMP              0 ****  ****    0 ROOT
