@<TRIPOS>MOLECULE
LAX
   55    54     1     0     0
SMALL
No Charge or Current Charge


@<TRIPOS>ATOM
      1 C1           1.9770    -0.8800     7.8410 c          1 LAX       0.717000
      2 O1           2.5090    -1.9580     7.6230 o          1 LAX      -0.743500
      3 O2           1.5700    -0.5380     8.9410 o          1 LAX      -0.743500
      4 C2           1.7540     0.0740     6.6530 c3         1 LAX      -0.204400
      5 C3           0.3860    -0.2130     5.9860 c3         1 LAX      -0.053400
      6 C4           0.0910     0.7100     4.7830 c3         1 LAX      -0.079400
      7 C5          -1.2750     0.4230     4.1200 c3         1 LAX      -0.075400
      8 C6          -1.5700     1.3460     2.9180 c3         1 LAX      -0.073400
      9 C7          -2.9320     1.0600     2.2530 c3         1 LAX      -0.049200
     10 C8          -3.1990     1.9770     1.0740 c2         1 LAX      -0.200200
     11 C9          -2.8460     1.7760    -0.2090 c2         1 LAX      -0.232200
     12 C10         -2.0680     0.6040    -0.7800 c3         1 LAX      -0.011000
     13 C11         -2.8730    -0.1030    -1.8540 c2         1 LAX      -0.201200
     14 C12         -2.3970    -0.6880    -2.9680 c2         1 LAX      -0.228200
     15 C13         -0.9450    -0.7950    -3.3940 c3         1 LAX      -0.011000
     16 C14         -0.6900    -2.1090    -4.1090 c2         1 LAX      -0.203200
     17 C15         -0.2100    -2.2840    -5.3540 c2         1 LAX      -0.227200
     18 C16          0.1600    -1.2050    -6.3540 c3         1 LAX      -0.041200
     19 C17          1.6210    -0.7360    -6.1920 c3         1 LAX      -0.073400
     20 C18          2.0200     0.3670    -7.1960 c3         1 LAX      -0.076400
     21 C19          3.4820     0.8360    -7.0290 c3         1 LAX      -0.075400
     22 C20          3.8810     1.9370    -8.0300 c3         1 LAX      -0.088100
     23 H21          2.5090    -0.0980     5.8750 hc         1 LAX       0.014200
     24 H22          1.7070     1.1140     7.0000 hc         1 LAX       0.014200
     25 H31         -0.4100    -0.0960     6.7330 hc         1 LAX       0.037700
     26 H32          0.3600    -1.2580     5.6530 hc         1 LAX       0.037700
     27 H41          0.8850     0.5930     4.0350 hc         1 LAX       0.024200
     28 H42          0.1160     1.7560     5.1160 hc         1 LAX       0.024200
     29 H51         -2.0690     0.5400     4.8680 hc         1 LAX       0.034200
     30 H52         -1.2990    -0.6220     3.7860 hc         1 LAX       0.034200
     31 H61         -0.7750     1.2300     2.1700 hc         1 LAX       0.035200
     32 H62         -1.5460     2.3910     3.2500 hc         1 LAX       0.035200
     33 H71         -3.7300     1.1770     2.9980 hc         1 LAX       0.043200
     34 H72         -2.9670     0.0090     1.9420 hc         1 LAX       0.043200
     35 H8          -3.7510     2.8810     1.3410 ha         1 LAX       0.162000
     36 H9          -3.1110     2.5240    -0.9580 ha         1 LAX       0.161000
     37 H101        -1.7970    -0.1140     0.0020 hc         1 LAX       0.053200
     38 H102        -1.1190     0.9730    -1.1870 hc         1 LAX       0.053200
     39 H11         -3.9480    -0.1080    -1.6640 ha         1 LAX       0.168000
     40 H12         -3.0950    -1.1540    -3.6660 ha         1 LAX       0.163000
     41 H131        -0.2800    -0.7300    -2.5250 hc         1 LAX       0.051200
     42 H132        -0.6900     0.0600    -4.0300 hc         1 LAX       0.051200
     43 H14         -0.9200    -2.9850    -3.4980 ha         1 LAX       0.171000
     44 H15         -0.0660    -3.2980    -5.7340 ha         1 LAX       0.163000
     45 H161        -0.5080    -0.3410    -6.2560 hc         1 LAX       0.042200
     46 H162         0.0120    -1.5820    -7.3740 hc         1 LAX       0.042200
     47 H171         2.2890    -1.5970    -6.3150 hc         1 LAX       0.039700
     48 H172         1.7660    -0.3630    -5.1700 hc         1 LAX       0.039700
     49 H181         1.3500     1.2270    -7.0710 hc         1 LAX       0.036200
     50 H182         1.8760    -0.0060    -8.2180 hc         1 LAX       0.036200
     51 H191         4.1560    -0.0210    -7.1550 hc         1 LAX       0.037200
     52 H192         3.6300     1.2120    -6.0090 hc         1 LAX       0.037200
     53 H201         4.9240     2.2370    -7.8740 hc         1 LAX       0.030033
     54 H202         3.7780     1.5800    -9.0620 hc         1 LAX       0.030033
     55 H203         3.2470     2.8240    -7.9050 hc         1 LAX       0.030033
@<TRIPOS>BOND
     1     1     2 1   
     2     1     3 1   
     3     1     4 1   
     4     4     5 1   
     5     4    23 1   
     6     4    24 1   
     7     5     6 1   
     8     5    25 1   
     9     5    26 1   
    10     6     7 1   
    11     6    27 1   
    12     6    28 1   
    13     7     8 1   
    14     7    29 1   
    15     7    30 1   
    16     8     9 1   
    17     8    31 1   
    18     8    32 1   
    19     9    10 1   
    20     9    33 1   
    21     9    34 1   
    22    10    11 2   
    23    10    35 1   
    24    11    12 1   
    25    11    36 1   
    26    12    13 1   
    27    12    37 1   
    28    12    38 1   
    29    13    14 2   
    30    13    39 1   
    31    14    15 1   
    32    14    40 1   
    33    15    16 1   
    34    15    41 1   
    35    15    42 1   
    36    16    17 2   
    37    16    43 1   
    38    17    18 1   
    39    17    44 1   
    40    18    19 1   
    41    18    45 1   
    42    18    46 1   
    43    19    20 1   
    44    19    47 1   
    45    19    48 1   
    46    20    21 1   
    47    20    49 1   
    48    20    50 1   
    49    21    22 1   
    50    21    51 1   
    51    21    52 1   
    52    22    53 1   
    53    22    54 1   
    54    22    55 1   
@<TRIPOS>SUBSTRUCTURE
     1 LAX         1 TEMP              0 ****  ****    0 ROOT
