@<TRIPOS>MOLECULE
LAX
   55    54     1     0     0
SMALL
abcg2


@<TRIPOS>ATOM
      1 C1           0.6090    -0.6940     9.3960 c          1 LAX       0.717000
      2 O1           0.0550    -1.8100     9.3570 o          1 LAX      -0.743500
      3 O2           1.2630    -0.2290    10.3540 o          1 LAX      -0.743500
      4 C2           0.4980     0.2110     8.1570 c3         1 LAX      -0.204400
      5 C3          -0.3750    -0.2980     7.0220 c3         1 LAX      -0.053400
      6 C4          -0.4120     0.6630     5.8400 c3         1 LAX      -0.079400
      7 C5          -1.3130     0.2000     4.7020 c3         1 LAX      -0.075400
      8 C6          -1.2890     1.1480     3.5100 c3         1 LAX      -0.073400
      9 C7          -2.2380     0.7320     2.3840 c3         1 LAX      -0.049200
     10 C8          -2.1660     1.6780     1.2270 c2         1 LAX      -0.200200
     11 C9          -1.7620     1.4190    -0.0160 c2         1 LAX      -0.232200
     12 C10         -1.3290     0.0960    -0.5810 c3         1 LAX      -0.011000
     13 C11         -2.1830    -0.2820    -1.7560 c2         1 LAX      -0.201200
     14 C12         -1.8040    -0.4200    -3.0260 c2         1 LAX      -0.228200
     15 C13         -0.4210    -0.2810    -3.5920 c3         1 LAX      -0.011000
     16 C14          0.0420    -1.5830    -4.1820 c2         1 LAX      -0.203200
     17 C15          0.3220    -1.8350    -5.4600 c2         1 LAX      -0.227200
     18 C16          0.2930    -0.8710    -6.6040 c3         1 LAX      -0.041200
     19 C17          1.6990    -0.5600    -7.1210 c3         1 LAX      -0.073400
     20 C18          1.7040     0.4160    -8.2910 c3         1 LAX      -0.076400
     21 C19          3.1050     0.7320    -8.8000 c3         1 LAX      -0.075400
     22 C20          3.1090     1.7340    -9.9460 c3         1 LAX      -0.088100
     23 H21          1.5130     0.3960     7.7820 hc         1 LAX       0.014200
     24 H22          0.1390     1.1940     8.4830 hc         1 LAX       0.014200
     25 H31         -1.3940    -0.4640     7.3850 hc         1 LAX       0.037700
     26 H32         -0.0140    -1.2740     6.6830 hc         1 LAX       0.037700
     27 H41          0.6050     0.8090     5.4580 hc         1 LAX       0.024200
     28 H42         -0.7470     1.6490     6.1830 hc         1 LAX       0.024200
     29 H51         -2.3410     0.1000     5.0700 hc         1 LAX       0.034200
     30 H52         -1.0080    -0.8000     4.3760 hc         1 LAX       0.034200
     31 H61         -0.2700     1.2090     3.1140 hc         1 LAX       0.035200
     32 H62         -1.5480     2.1590     3.8430 hc         1 LAX       0.035200
     33 H71         -3.2610     0.7160     2.7750 hc         1 LAX       0.043200
     34 H72         -2.0120    -0.2910     2.0720 hc         1 LAX       0.043200
     35 H8          -2.4470     2.7040     1.4560 ha         1 LAX       0.162000
     36 H9          -1.7460     2.2420    -0.7260 ha         1 LAX       0.161000
     37 H101        -1.3950    -0.6860     0.1790 hc         1 LAX       0.053200
     38 H102        -0.2770     0.1540    -0.8700 hc         1 LAX       0.053200
     39 H11         -3.2350    -0.4300    -1.5260 ha         1 LAX       0.168000
     40 H12         -2.5670    -0.6850    -3.7530 ha         1 LAX       0.163000
     41 H131         0.2850     0.0340    -2.8200 hc         1 LAX       0.051200
     42 H132        -0.4180     0.5060    -4.3490 hc         1 LAX       0.051200
     43 H14          0.1340    -2.3980    -3.4690 ha         1 LAX       0.171000
     44 H15          0.6430    -2.8420    -5.7120 ha         1 LAX       0.163000
     45 H161        -0.2040     0.0600    -6.3200 hc         1 LAX       0.042200
     46 H162        -0.2980    -1.2980    -7.4210 hc         1 LAX       0.042200
     47 H171         2.1920    -1.4910    -7.4180 hc         1 LAX       0.039700
     48 H172         2.2960    -0.1470    -6.3000 hc         1 LAX       0.039700
     49 H181         1.2100     1.3460    -7.9870 hc         1 LAX       0.036200
     50 H182         1.1030     0.0070    -9.1110 hc         1 LAX       0.036200
     51 H191         3.5910    -0.1950    -9.1220 hc         1 LAX       0.037200
     52 H192         3.7110     1.1180    -7.9730 hc         1 LAX       0.037200
     53 H201         4.1220     1.9450   -10.2900 hc         1 LAX       0.030033
     54 H202         2.5430     1.3590   -10.8010 hc         1 LAX       0.030033
     55 H203         2.6580     2.6800    -9.6440 hc         1 LAX       0.030033
@<TRIPOS>BOND
     1     1     2 1   
     2     1     3 1   
     3     1     4 1   
     4     4     5 1   
     5     4    23 1   
     6     4    24 1   
     7     5     6 1   
     8     5    25 1   
     9     5    26 1   
    10     6     7 1   
    11     6    27 1   
    12     6    28 1   
    13     7     8 1   
    14     7    29 1   
    15     7    30 1   
    16     8     9 1   
    17     8    31 1   
    18     8    32 1   
    19     9    10 1   
    20     9    33 1   
    21     9    34 1   
    22    10    11 2   
    23    10    35 1   
    24    11    12 1   
    25    11    36 1   
    26    12    13 1   
    27    12    37 1   
    28    12    38 1   
    29    13    14 2   
    30    13    39 1   
    31    14    15 1   
    32    14    40 1   
    33    15    16 1   
    34    15    41 1   
    35    15    42 1   
    36    16    17 2   
    37    16    43 1   
    38    17    18 1   
    39    17    44 1   
    40    18    19 1   
    41    18    45 1   
    42    18    46 1   
    43    19    20 1   
    44    19    47 1   
    45    19    48 1   
    46    20    21 1   
    47    20    49 1   
    48    20    50 1   
    49    21    22 1   
    50    21    51 1   
    51    21    52 1   
    52    22    53 1   
    53    22    54 1   
    54    22    55 1   
@<TRIPOS>SUBSTRUCTURE
     1 LAX         1 TEMP              0 ****  ****    0 ROOT
