@<TRIPOS>MOLECULE
LAY
   26    25     1     0     0
SMALL
abcg2


@<TRIPOS>ATOM
      1 CN           1.7870     1.2320     0.1790 c          1 LAY       0.603100
      2 O            2.2030     0.8580     1.2690 o          1 LAY      -0.625100
      3 CH3          2.4840     2.3040    -0.6270 c3         1 LAY      -0.181100
      4 N            0.6610     0.7550    -0.3750 ns         1 LAY      -0.459900
      5 CA          -0.0160    -0.4160     0.1290 c3         1 LAY      -0.043300
      6 C            0.7510    -1.7320    -0.1720 c          1 LAY       0.715000
      7 ON           1.7460    -1.6690    -0.9120 o          1 LAY      -0.725500
      8 CB          -1.4330    -0.4810    -0.4390 c3         1 LAY      -0.069400
      9 CG          -2.3210     0.7300    -0.1430 c3         1 LAY      -0.062700
     10 CD1         -3.6770     0.5480    -0.8180 c3         1 LAY      -0.082600
     11 CD2         -2.4950     0.9620     1.3540 c3         1 LAY      -0.082600
     12 OXT          0.2710    -2.7520     0.3640 o          1 LAY      -0.725500
     13 HH31         3.3810     2.6430    -0.1140 hc         1 LAY       0.041700
     14 HH32         2.7670     1.9260    -1.6100 hc         1 LAY       0.041700
     15 HH33         1.8280     3.1620    -0.7850 hc         1 LAY       0.041700
     16 H            0.4700     1.0170    -1.3300 hn         1 LAY       0.285500
     17 HA          -0.0840    -0.3220     1.2150 h1         1 LAY       0.063700
     18 HB1C        -1.3800    -0.6270    -1.5250 hc         1 LAY       0.046700
     19 HB2C        -1.9110    -1.3780    -0.0370 hc         1 LAY       0.046700
     20 HG          -1.8510     1.6220    -0.5720 hc         1 LAY       0.034700
     21 HD11        -3.5690     0.3960    -1.8940 hc         1 LAY       0.023367
     22 HD12        -4.2040    -0.3200    -0.4130 hc         1 LAY       0.023367
     23 HD13        -4.3160     1.4200    -0.6690 hc         1 LAY       0.023367
     24 HD21        -1.5550     1.2120     1.8450 hc         1 LAY       0.023367
     25 HD22        -3.1890     1.7830     1.5430 hc         1 LAY       0.023367
     26 HD23        -2.9000     0.0710     1.8420 hc         1 LAY       0.023367
@<TRIPOS>BOND
     1     1     2 2   
     2     1     3 1   
     3     1     4 1   
     4     3    13 1   
     5     3    14 1   
     6     3    15 1   
     7     4     5 1   
     8     4    16 1   
     9     5     6 1   
    10     5     8 1   
    11     5    17 1   
    12     6     7 1   
    13     6    12 1   
    14     8     9 1   
    15     8    18 1   
    16     8    19 1   
    17     9    10 1   
    18     9    11 1   
    19     9    20 1   
    20    10    21 1   
    21    10    22 1   
    22    10    23 1   
    23    11    24 1   
    24    11    25 1   
    25    11    26 1   
@<TRIPOS>SUBSTRUCTURE
     1 LAY         1 TEMP              0 ****  ****    0 ROOT
