@<TRIPOS>MOLECULE
LAY
   26    25     1     0     0
SMALL
No Charge or Current Charge


@<TRIPOS>ATOM
      1 CN           1.3600     1.5350     0.1870 c          1 LAY       0.603100
      2 O            1.0600     1.7590     1.3510 o          1 LAY      -0.625100
      3 CH3          2.2380     2.4810    -0.6260 c3         1 LAY      -0.181100
      4 N            0.9440     0.4130    -0.4960 ns         1 LAY      -0.459900
      5 CA           0.0600    -0.6540     0.0390 c3         1 LAY      -0.043300
      6 C            0.6460    -2.0580    -0.3050 c          1 LAY       0.715000
      7 ON           0.9030    -2.3160    -1.4750 o          1 LAY      -0.725500
      8 CB          -1.3970    -0.5100    -0.4840 c3         1 LAY      -0.069400
      9 CG          -2.1680     0.7570    -0.0170 c3         1 LAY      -0.062700
     10 CD1         -3.5010     0.9060    -0.7860 c3         1 LAY      -0.082600
     11 CD2         -2.4180     0.7760     1.5100 c3         1 LAY      -0.082600
     12 OXT          0.8970    -2.8210     0.6180 o          1 LAY      -0.725500
     13 HH31         2.5590     3.3600    -0.0560 hc         1 LAY       0.041700
     14 HH32         3.0950     1.9220    -1.0220 hc         1 LAY       0.041700
     15 HH33         1.7060     2.7650    -1.5410 hc         1 LAY       0.041700
     16 H            1.2750     0.3180    -1.4490 hn         1 LAY       0.285500
     17 HA           0.0510    -0.5880     1.1330 h1         1 LAY       0.063700
     18 HB1C        -1.3720    -0.5300    -1.5810 hc         1 LAY       0.046700
     19 HB2C        -1.9670    -1.3970    -0.1770 hc         1 LAY       0.046700
     20 HG          -1.5610     1.6360    -0.2650 hc         1 LAY       0.034700
     21 HD11        -3.3230     0.9560    -1.8670 hc         1 LAY       0.023367
     22 HD12        -4.1650     0.0550    -0.5860 hc         1 LAY       0.023367
     23 HD13        -4.0210     1.8240    -0.4880 hc         1 LAY       0.023367
     24 HD21        -1.4770     0.7740     2.0700 hc         1 LAY       0.023367
     25 HD22        -2.9720     1.6770     1.7990 hc         1 LAY       0.023367
     26 HD23        -3.0040    -0.0980     1.8200 hc         1 LAY       0.023367
@<TRIPOS>BOND
     1     1     2 2   
     2     1     3 1   
     3     1     4 1   
     4     3    13 1   
     5     3    14 1   
     6     3    15 1   
     7     4     5 1   
     8     4    16 1   
     9     5     6 1   
    10     5     8 1   
    11     5    17 1   
    12     6     7 1   
    13     6    12 1   
    14     8     9 1   
    15     8    18 1   
    16     8    19 1   
    17     9    10 1   
    18     9    11 1   
    19     9    20 1   
    20    10    21 1   
    21    10    22 1   
    22    10    23 1   
    23    11    24 1   
    24    11    25 1   
    25    11    26 1   
@<TRIPOS>SUBSTRUCTURE
     1 LAY         1 TEMP              0 ****  ****    0 ROOT
