@<TRIPOS>MOLECULE
LAZ
   23    23     1     0     0
SMALL
No Charge or Current Charge


@<TRIPOS>ATOM
      1 O7          -1.7970    -0.5800     1.8810 o          1 LAZ      -0.606100
      2 C7          -0.7880    -0.0280     1.4620 c          1 LAZ       0.610700
      3 N8           0.0790     0.6150     2.3190 ns         1 LAZ      -0.492900
      4 C9          -0.0600     0.6450     3.7830 c3         1 LAZ       0.101000
      5 C10          0.3600    -0.6820     4.4630 c3         1 LAZ       0.132600
      6 O10          1.7430    -0.9750     4.1980 oh         1 LAZ      -0.669000
      7 C6          -0.4330    -0.0090    -0.0130 ca         1 LAZ      -0.149600
      8 C5          -1.2840    -0.6580    -0.9380 ca         1 LAZ      -0.064000
      9 C4          -0.9850    -0.6610    -2.3120 ca         1 LAZ      -0.114000
     10 C3           0.1670    -0.0160    -2.7810 ca         1 LAZ       0.136000
     11 Cl3          0.5390    -0.0200    -4.5000 cl         1 LAZ      -0.196000
     12 C2           1.0230     0.6330    -1.8800 ca         1 LAZ      -0.114000
     13 C1           0.7290     0.6390    -0.5040 ca         1 LAZ      -0.064000
     14 H8           0.9060     1.0290     1.9110 hn         1 LAZ       0.323500
     15 H9C1        -1.1060     0.8630     4.0370 h1         1 LAZ       0.065200
     16 H9C2         0.5540     1.4640     4.1790 h1         1 LAZ       0.065200
     17 H101        -0.2810    -1.4950     4.0960 h1         1 LAZ       0.032700
     18 H102         0.1930    -0.5910     5.5450 h1         1 LAZ       0.032700
     19 H10          1.9460    -1.8310     4.6380 ho         1 LAZ       0.447000
     20 H5          -2.1840    -1.1650    -0.5950 ha         1 LAZ       0.129000
     21 H4          -1.6480    -1.1630    -3.0120 ha         1 LAZ       0.133000
     22 H2           1.9160     1.1320    -2.2470 ha         1 LAZ       0.133000
     23 H1           1.4170     1.1530     0.1630 ha         1 LAZ       0.129000
@<TRIPOS>BOND
     1     1     2 2   
     2     2     3 1   
     3     2     7 1   
     4     3     4 1   
     5     3    14 1   
     6     4     5 1   
     7     4    15 1   
     8     4    16 1   
     9     5     6 1   
    10     5    17 1   
    11     5    18 1   
    12     6    19 1   
    13     7     8 ar  
    14     7    13 ar  
    15     8     9 ar  
    16     8    20 1   
    17     9    10 ar  
    18     9    21 1   
    19    10    11 1   
    20    10    12 ar  
    21    12    13 ar  
    22    12    22 1   
    23    13    23 1   
@<TRIPOS>SUBSTRUCTURE
     1 LAZ         1 TEMP              0 ****  ****    0 ROOT
