@<TRIPOS>MOLECULE
LAZ
   23    23     1     0     0
SMALL
bcc


@<TRIPOS>ATOM
      1 O7          -1.9050    -0.1380     1.8180 o          1 LAZ      -0.606100
      2 C7          -0.7720     0.1410     1.4480 c          1 LAZ       0.677700
      3 N8           0.2060     0.5060     2.2910 ns         1 LAZ      -0.559900
      4 C9           0.0230     0.5830     3.7230 c3         1 LAZ       0.101000
      5 C10          0.2950    -0.7280     4.4340 c3         1 LAZ       0.109400
      6 O10          1.6440    -1.0790     4.2240 oh         1 LAZ      -0.606800
      7 C6          -0.4080     0.0950    -0.0030 ca         1 LAZ      -0.149600
      8 C5          -1.1560    -0.7280    -0.8410 ca         1 LAZ      -0.082000
      9 C4          -0.8750    -0.8070    -2.1950 ca         1 LAZ      -0.132000
     10 C3           0.1550    -0.0380    -2.7150 ca         1 LAZ       0.044400
     11 CL3          0.5090    -0.1230    -4.4060 cl         1 LAZ      -0.104400
     12 C2           0.9020     0.8030    -1.9050 ca         1 LAZ      -0.132000
     13 C1           0.6160     0.8640    -0.5500 ca         1 LAZ      -0.082000
     14 H8           1.1500     0.5730     1.9470 hn         1 LAZ       0.323500
     15 H9C1        -0.9960     0.9000     3.9390 h1         1 LAZ       0.065200
     16 H9C2         0.6880     1.3590     4.1050 h1         1 LAZ       0.065200
     17 H101        -0.3890    -1.4950     4.0540 h1         1 LAZ       0.032700
     18 H102         0.0680    -0.5920     5.4990 h1         1 LAZ       0.032700
     19 H10          1.7800    -1.9720     4.5550 ho         1 LAZ       0.408000
     20 H5          -1.9640    -1.3210    -0.4350 ha         1 LAZ       0.147000
     21 H4          -1.4520    -1.4600    -2.8350 ha         1 LAZ       0.151000
     22 H2           1.6930     1.4100    -2.3230 ha         1 LAZ       0.151000
     23 H1           1.1930     1.5440     0.0630 ha         1 LAZ       0.147000
@<TRIPOS>BOND
     1     1     2 2   
     2     2     3 1   
     3     2     7 1   
     4     3     4 1   
     5     3    14 1   
     6     4     5 1   
     7     4    15 1   
     8     4    16 1   
     9     5     6 1   
    10     5    17 1   
    11     5    18 1   
    12     6    19 1   
    13     7     8 ar  
    14     7    13 ar  
    15     8     9 ar  
    16     8    20 1   
    17     9    10 ar  
    18     9    21 1   
    19    10    11 1   
    20    10    12 ar  
    21    12    13 ar  
    22    12    22 1   
    23    13    23 1   
@<TRIPOS>SUBSTRUCTURE
     1 LAZ         1 TEMP              0 ****  ****    0 ROOT
