@<TRIPOS>MOLECULE
LB0
   35    37     1     0     0
SMALL
abcg2


@<TRIPOS>ATOM
      1 N1           7.6680    -0.2990    20.9810 ns         1 LB0      -0.157000
      2 C4           7.2840     0.0870    18.5980 ca         1 LB0       0.336900
      3 C5           6.9110     0.2590    19.9320 ca         1 LB0      -0.082000
      4 C6           9.0310    -0.3640    21.0580 c          1 LB0       0.610100
      5 C7           9.5580    -0.9720    22.3320 cy         1 LB0      -0.178700
      6 C8          10.7080    -1.9960    22.1010 cy         1 LB0      -0.060900
      7 C10         10.5840    -0.0550    23.0670 cy         1 LB0      -0.060900
      8 C13         14.0540    -0.4850    23.6500 cx         1 LB0      -0.127900
      9 O            9.7690     0.0490    20.1690 o          1 LB0      -0.579100
     10 C9          11.7480    -0.9280    22.5290 cy         1 LB0      -0.047700
     11 C11         12.8230    -1.3360    23.4900 cx         1 LB0      -0.119700
     12 C12         14.1480    -1.8290    22.9730 cx         1 LB0      -0.127900
     13 C1           5.7420     0.9740    20.2280 ca         1 LB0      -0.080300
     14 C            5.2890     1.1910    21.6410 c3         1 LB0      -0.050800
     15 N            6.5900     0.5830    17.5730 nb         1 LB0      -0.648000
     16 C3           5.4770     1.2690    17.8530 ca         1 LB0       0.316900
     17 C2           5.0240     1.4770    19.1470 ca         1 LB0      -0.146000
     18 H1           7.1610    -0.5850    21.8040 hn         1 LB0       0.151000
     19 H3           8.7390    -1.3310    22.9540 hc         1 LB0       0.060700
     20 H4          10.8000    -2.3970    21.0930 hc         1 LB0       0.058450
     21 H5          10.6460    -2.8190    22.8140 hc         1 LB0       0.058450
     22 H6          10.4740    -0.1380    24.1490 hc         1 LB0       0.058450
     23 H7          10.5820     0.9970    22.7860 hc         1 LB0       0.058450
     24 H8          14.4820    -0.3800    24.6380 hc         1 LB0       0.071700
     25 H9          14.1320     0.3980    23.0280 hc         1 LB0       0.071700
     26 H10         12.1990    -0.4630    21.6510 hc         1 LB0       0.074700
     27 H11         12.4580    -1.8170    24.3920 hc         1 LB0       0.072700
     28 H12         14.6400    -2.6330    23.5040 hc         1 LB0       0.071700
     29 H13         14.2900    -1.8430    21.8990 hc         1 LB0       0.071700
     30 H14          5.0090     0.2470    22.1160 hc         1 LB0       0.046700
     31 H15          6.0880     1.6290    22.2430 hc         1 LB0       0.046700
     32 H16          4.4250     1.8530    21.6700 hc         1 LB0       0.046700
     33 H17          4.9230     1.6630    17.0080 h4         1 LB0       0.021100
     34 H18          4.1140     2.0380    19.3180 ha         1 LB0       0.121000
     35 H2           8.1760    -0.4740    18.3610 h4         1 LB0       0.041100
@<TRIPOS>BOND
     1     1     3 1   
     2     1     4 1   
     3     1    18 1   
     4     2     3 ar  
     5     2    15 ar  
     6     2    35 1   
     7     3    13 ar  
     8     4     5 1   
     9     4     9 2   
    10     5     6 1   
    11     5     7 1   
    12     5    19 1   
    13     6    10 1   
    14     6    20 1   
    15     6    21 1   
    16     7    10 1   
    17     7    22 1   
    18     7    23 1   
    19     8    11 1   
    20     8    12 1   
    21     8    24 1   
    22     8    25 1   
    23    10    11 1   
    24    10    26 1   
    25    11    12 1   
    26    11    27 1   
    27    12    28 1   
    28    12    29 1   
    29    13    14 1   
    30    13    17 ar  
    31    14    30 1   
    32    14    31 1   
    33    14    32 1   
    34    15    16 ar  
    35    16    17 ar  
    36    16    33 1   
    37    17    34 1   
@<TRIPOS>SUBSTRUCTURE
     1 LB0         1 TEMP              0 ****  ****    0 ROOT
