@<TRIPOS>MOLECULE
LB0
   35    37     1     0     0
SMALL
No Charge or Current Charge


@<TRIPOS>ATOM
      1 N1           7.8980    -0.3680    20.9210 ns         1 LB0      -0.157000
      2 C4           7.3450     0.1510    18.5330 ca         1 LB0       0.336900
      3 C5           7.1050     0.2810    19.9260 ca         1 LB0      -0.082000
      4 C6           9.1350    -1.0030    20.8690 c          1 LB0       0.610100
      5 C7           9.4290    -1.5720    22.3360 cy         1 LB0      -0.178700
      6 C8          10.7880    -2.3280    22.0700 cy         1 LB0      -0.060900
      7 C10         10.2420    -0.3200    22.8510 cy         1 LB0      -0.060900
      8 C13         13.6750    -0.0950    23.6700 cx         1 LB0      -0.127900
      9 O            9.7560    -1.0450    19.8110 o          1 LB0      -0.579100
     10 C9          11.5570    -0.9610    22.2550 cy         1 LB0      -0.047700
     11 C11         12.5990    -1.1130    23.3800 cx         1 LB0      -0.119700
     12 C12         14.0480    -1.4600    23.1390 cx         1 LB0      -0.127900
     13 C1           6.0140     1.0760    20.3430 ca         1 LB0      -0.080300
     14 C            5.6750     1.2680    21.8180 c3         1 LB0      -0.050800
     15 N            6.5890     0.7580    17.5860 nb         1 LB0      -0.648000
     16 C3           5.5560     1.5230    17.9990 ca         1 LB0       0.316900
     17 C2           5.2360     1.7050    19.3530 ca         1 LB0      -0.146000
     18 H1           7.4800    -0.3650    21.8420 hn         1 LB0       0.151000
     19 H3           8.5990    -2.0160    22.8970 hc         1 LB0       0.060700
     20 H4          10.9160    -2.8320    21.1050 hc         1 LB0       0.058450
     21 H5          11.0090    -3.0780    22.8390 hc         1 LB0       0.058450
     22 H6          10.2340    -0.2300    23.9430 hc         1 LB0       0.058450
     23 H7           9.9750     0.6660    22.4520 hc         1 LB0       0.058450
     24 H8          13.8970     0.1250    24.7120 hc         1 LB0       0.071700
     25 H9          13.7690     0.7530    22.9960 hc         1 LB0       0.071700
     26 H10         11.8910    -0.5030    21.3170 hc         1 LB0       0.074700
     27 H11         12.1550    -1.5760    24.2590 hc         1 LB0       0.072700
     28 H12         14.5220    -2.1600    23.8230 hc         1 LB0       0.071700
     29 H13         14.3920    -1.5250    22.1100 hc         1 LB0       0.071700
     30 H14          5.4170     0.3120    22.2910 hc         1 LB0       0.046700
     31 H15          6.5220     1.6980    22.3660 hc         1 LB0       0.046700
     32 H16          4.8210     1.9420    21.9550 hc         1 LB0       0.046700
     33 H17          4.9640     2.0020    17.2200 h4         1 LB0       0.021100
     34 H18          4.3890     2.3300    19.6210 ha         1 LB0       0.121000
     35 H2           8.1480    -0.4690    18.1430 h4         1 LB0       0.041100
@<TRIPOS>BOND
     1     1     3 1   
     2     1     4 1   
     3     1    18 1   
     4     2     3 ar  
     5     2    15 ar  
     6     2    35 1   
     7     3    13 ar  
     8     4     5 1   
     9     4     9 2   
    10     5     6 1   
    11     5     7 1   
    12     5    19 1   
    13     6    10 1   
    14     6    20 1   
    15     6    21 1   
    16     7    10 1   
    17     7    22 1   
    18     7    23 1   
    19     8    11 1   
    20     8    12 1   
    21     8    24 1   
    22     8    25 1   
    23    10    11 1   
    24    10    26 1   
    25    11    12 1   
    26    11    27 1   
    27    12    28 1   
    28    12    29 1   
    29    13    14 1   
    30    13    17 ar  
    31    14    30 1   
    32    14    31 1   
    33    14    32 1   
    34    15    16 ar  
    35    16    17 ar  
    36    16    33 1   
    37    17    34 1   
@<TRIPOS>SUBSTRUCTURE
     1 LB0         1 TEMP              0 ****  ****    0 ROOT
