@<TRIPOS>MOLECULE
LB1
   38    40     1     0     0
SMALL
No Charge or Current Charge


@<TRIPOS>ATOM
      1 C10         -1.7070    -0.7720    -0.5780 c5         1 LB1      -0.208700
      2 C13         -0.1820     0.9390     0.7570 c          1 LB1       0.664100
      3 C07         -1.2800     0.7450    -0.3470 c5         1 LB1      -0.148700
      4 C08         -2.6390     1.3690     0.1190 c5         1 LB1       0.158300
      5 C09         -3.2190    -0.7270    -0.1820 c5         1 LB1       0.158300
      6 C11         -3.5360     1.4710    -1.1590 c5         1 LB1      -0.114400
      7 C12         -3.9580    -0.0250    -1.3670 c5         1 LB1      -0.116400
      8 C14         -0.9600    -1.8170     0.3030 c          1 LB1       0.714000
      9 O01         -3.2560     0.2900     0.8200 os         1 LB1      -0.411000
     10 O02         -0.4020     1.2690     1.9190 o          1 LB1      -0.621100
     11 O04         -1.0810    -1.8120     1.5180 o          1 LB1      -0.718500
     12 H1          -1.5530    -1.0480    -1.6270 hc         1 LB1       0.042700
     13 H3          -0.9250     1.1590    -1.2950 hc         1 LB1       0.033700
     14 H4          -2.5670     2.2900     0.7150 h1         1 LB1       0.089700
     15 H5          -3.6570    -1.6800     0.1500 h1         1 LB1       0.092700
     16 H6          -4.4100     2.1070    -0.9770 hc         1 LB1       0.032200
     17 H7          -3.0090     1.8890    -2.0240 hc         1 LB1       0.032200
     18 H8          -3.6680    -0.4160    -2.3490 hc         1 LB1       0.035700
     19 H9          -5.0430    -0.1460    -1.2810 hc         1 LB1       0.035700
     20 O1          -0.3090    -2.6770    -0.2700 o          1 LB1      -0.718500
     21 N1           1.1300     0.5800     0.3370 n          1 LB1      -0.405800
     22 C2           2.2580     0.7750     1.3010 c6         1 LB1       0.112500
     23 C3           3.6070     0.1100     0.9150 c6         1 LB1       0.136800
     24 N2           3.9910     0.3890    -0.4910 n3         1 LB1      -0.723600
     25 C5           2.9280    -0.1270    -1.3890 c6         1 LB1       0.136800
     26 C6           1.5390     0.5100    -1.1070 c6         1 LB1       0.112500
     27 C1           5.3260    -0.1470    -0.8300 c3         1 LB1       0.157100
     28 H10          2.4260     1.8560     1.4100 h1         1 LB1       0.043200
     29 H11          1.9650     0.3950     2.2900 h1         1 LB1       0.043200
     30 H12          4.3830     0.4720     1.6060 h1         1 LB1       0.050950
     31 H13          3.5190    -0.9750     1.0750 h1         1 LB1       0.050950
     32 H14          3.1880     0.0590    -2.4420 h1         1 LB1       0.050950
     33 H15          2.8370    -1.2180    -1.2740 h1         1 LB1       0.050950
     34 H16          0.8070    -0.0750    -1.6790 h1         1 LB1       0.043200
     35 H17          1.5340     1.5310    -1.5130 h1         1 LB1       0.043200
     36 H18          5.3490    -1.2400    -0.7240 h1         1 LB1       0.021700
     37 H19          5.5920     0.1050    -1.8650 h1         1 LB1       0.021700
     38 H20          6.0920     0.2800    -0.1690 h1         1 LB1       0.021700
@<TRIPOS>BOND
     1     1     3 1   
     2     1     5 1   
     3     1     8 1   
     4     1    12 1   
     5     2     3 1   
     6     2    10 2   
     7     2    21 1   
     8     3     4 1   
     9     3    13 1   
    10     4     6 1   
    11     4     9 1   
    12     4    14 1   
    13     5     7 1   
    14     5     9 1   
    15     5    15 1   
    16     6     7 1   
    17     6    16 1   
    18     6    17 1   
    19     7    18 1   
    20     7    19 1   
    21     8    11 1   
    22     8    20 1   
    23    21    22 1   
    24    21    26 1   
    25    22    23 1   
    26    22    28 1   
    27    22    29 1   
    28    23    24 1   
    29    23    30 1   
    30    23    31 1   
    31    24    25 1   
    32    24    27 1   
    33    25    26 1   
    34    25    32 1   
    35    25    33 1   
    36    26    34 1   
    37    26    35 1   
    38    27    36 1   
    39    27    37 1   
    40    27    38 1   
@<TRIPOS>SUBSTRUCTURE
     1 LB1         1 TEMP              0 ****  ****    0 ROOT
