@<TRIPOS>MOLECULE
LB1
   38    40     1     0     0
SMALL
abcg2


@<TRIPOS>ATOM
      1 C10         -1.3770    -0.6350    -0.7800 c5         1 LB1      -0.208700
      2 C13         -0.0920     1.0950     0.6980 c          1 LB1       0.664100
      3 C07         -1.2150     0.8380    -0.2940 c5         1 LB1      -0.148700
      4 C08         -2.6030     1.1080     0.3060 c5         1 LB1       0.158300
      5 C09         -2.8390    -0.8980    -0.3460 c5         1 LB1       0.158300
      6 C11         -3.6120     1.2870    -0.8390 c5         1 LB1      -0.114400
      7 C12         -3.7950    -0.1750    -1.3040 c5         1 LB1      -0.116400
      8 C14         -0.4440    -1.6890    -0.1590 c          1 LB1       0.714000
      9 O01         -2.9700    -0.1500     0.8510 os         1 LB1      -0.411000
     10 O02         -0.3300     1.3980     1.8610 o          1 LB1      -0.621100
     11 O04         -0.2550    -1.6300     1.0690 o          1 LB1      -0.718500
     12 H1          -1.2970    -0.6880    -1.8670 hc         1 LB1       0.042700
     13 H3          -1.0590     1.4960    -1.1530 hc         1 LB1       0.033700
     14 H4          -2.6380     1.8830     1.0690 h1         1 LB1       0.089700
     15 H5          -3.0790    -1.9470    -0.1690 h1         1 LB1       0.092700
     16 H6          -4.5460     1.7120    -0.4690 hc         1 LB1       0.032200
     17 H7          -3.2410     1.9470    -1.6240 hc         1 LB1       0.032200
     18 H8          -3.5340    -0.3340    -2.3500 hc         1 LB1       0.035700
     19 H9          -4.8210    -0.5170    -1.1650 hc         1 LB1       0.035700
     20 O1          -0.0020    -2.5570    -0.9410 o          1 LB1      -0.718500
     21 N1           1.1720     1.0740     0.2160 n          1 LB1      -0.405800
     22 C2           2.3000     1.3420     1.0860 c6         1 LB1       0.112500
     23 C3           3.3520     0.2590     0.9380 c6         1 LB1       0.136800
     24 N2           3.7870     0.1580    -0.4410 n3         1 LB1      -0.723600
     25 C5           2.6580    -0.1660    -1.2920 c6         1 LB1       0.136800
     26 C6           1.5610     0.8800    -1.1680 c6         1 LB1       0.112500
     27 C1           4.8540    -0.8030    -0.5950 c3         1 LB1       0.157100
     28 H10          2.7380     2.3130     0.8270 h1         1 LB1       0.043200
     29 H11          1.9600     1.3940     2.1160 h1         1 LB1       0.043200
     30 H12          4.2090     0.5100     1.5680 h1         1 LB1       0.050950
     31 H13          2.9380    -0.6960     1.3060 h1         1 LB1       0.050950
     32 H14          2.9910    -0.1920    -2.3330 h1         1 LB1       0.050950
     33 H15          2.2400    -1.1570    -1.0560 h1         1 LB1       0.050950
     34 H16          0.7160     0.5700    -1.7750 h1         1 LB1       0.043200
     35 H17          1.9230     1.8320    -1.5740 h1         1 LB1       0.043200
     36 H18          4.5630    -1.8260    -0.3080 h1         1 LB1       0.021700
     37 H19          5.1860    -0.8320    -1.6340 h1         1 LB1       0.021700
     38 H20          5.7090    -0.5150     0.0200 h1         1 LB1       0.021700
@<TRIPOS>BOND
     1     1     3 1   
     2     1     5 1   
     3     1     8 1   
     4     1    12 1   
     5     2     3 1   
     6     2    10 2   
     7     2    21 1   
     8     3     4 1   
     9     3    13 1   
    10     4     6 1   
    11     4     9 1   
    12     4    14 1   
    13     5     7 1   
    14     5     9 1   
    15     5    15 1   
    16     6     7 1   
    17     6    16 1   
    18     6    17 1   
    19     7    18 1   
    20     7    19 1   
    21     8    11 1   
    22     8    20 1   
    23    21    22 1   
    24    21    26 1   
    25    22    23 1   
    26    22    28 1   
    27    22    29 1   
    28    23    24 1   
    29    23    30 1   
    30    23    31 1   
    31    24    25 1   
    32    24    27 1   
    33    25    26 1   
    34    25    32 1   
    35    25    33 1   
    36    26    34 1   
    37    26    35 1   
    38    27    36 1   
    39    27    37 1   
    40    27    38 1   
@<TRIPOS>SUBSTRUCTURE
     1 LB1         1 TEMP              0 ****  ****    0 ROOT
