@<TRIPOS>MOLECULE
LB4
   64    67     1     0     0
SMALL
abcg2


@<TRIPOS>ATOM
      1 C13          6.6390    -0.2820    -0.4200 ca         1 LB4      -0.157000
      2 C18          0.8910     3.0650    -0.5300 c          1 LB4       0.624700
      3 C17          8.8300     0.3240    -1.5090 c3         1 LB4      -0.049800
      4 C16          7.6650    -2.5700     0.6230 ca         1 LB4       0.345900
      5 C15          8.4680    -1.7490    -0.1350 ca         1 LB4       0.075000
      6 C19          0.7400     5.4920    -0.6990 c3         1 LB4       0.094300
      7 C20         -0.9660     0.2330     0.2790 ca         1 LB4       0.292000
      8 C21         -0.8610    -0.0220    -1.0870 ca         1 LB4      -0.115000
      9 C22         -1.9560    -0.4730    -1.8060 ca         1 LB4      -0.091000
     10 C23         -3.1760    -0.6790    -1.1820 ca         1 LB4      -0.109000
     11 C24         -3.2960    -0.4330     0.1830 ca         1 LB4      -0.147600
     12 C11          1.3940     0.8050     0.5300 ca         1 LB4       0.388000
     13 C12          5.8810    -1.1670     0.3550 ca         1 LB4       0.593900
     14 C27         -4.6450    -0.5480     0.8190 c          1 LB4       0.617700
     15 C1          -7.5290    -1.3660    -0.0680 ca         1 LB4       0.327300
     16 C2          -8.8910    -1.2500     0.2000 ca         1 LB4      -0.156000
     17 N1          -6.9980    -0.9890    -1.2220 nb         1 LB4      -0.676000
     18 C3          -6.6110    -1.9660     0.9760 c3         1 LB4       0.053700
     19 C4          -9.7220    -0.7280    -0.7750 ca         1 LB4      -0.068000
     20 C5          -7.8010    -0.4830    -2.1530 ca         1 LB4       0.345900
     21 N2          -5.2170    -1.7590     0.6990 ns         1 LB4      -0.489900
     22 C6          -9.1670    -0.3320    -1.9850 ca         1 LB4      -0.165000
     23 C7           1.7970     1.9190    -0.2330 ca         1 LB4      -0.247600
     24 C8           3.1120     1.9310    -0.6690 ca         1 LB4       0.407900
     25 N3           4.0150     0.9970    -0.4010 nb         1 LB4      -0.749000
     26 C9           3.6450    -0.0250     0.3570 ca         1 LB4       0.652900
     27 C10          2.3310    -0.1600     0.8340 ca         1 LB4      -0.280000
     28 N4           4.5470    -0.9970     0.6840 nu         1 LB4      -0.903800
     29 C14          7.9700    -0.5740    -0.6780 ca         1 LB4      -0.049300
     30 N5           6.3950    -2.2830     0.8630 nb         1 LB4      -0.726000
     31 F1           9.7500    -2.0910    -0.3510 f          1 LB4      -0.172000
     32 N6           1.4670     4.2750    -0.4250 ns         1 LB4      -0.511900
     33 O1          -0.2780     2.9220    -0.8550 o          1 LB4      -0.570100
     34 C25         -2.1980     0.0160     0.9110 ca         1 LB4       0.096100
     35 O2          -2.2770     0.2480     2.2510 os         1 LB4      -0.343100
     36 C26         -2.3600    -0.9200     3.0610 c3         1 LB4       0.142900
     37 O3          -5.1810     0.3920     1.3840 o          1 LB4      -0.568100
     38 H11          6.1960     0.6160    -0.8170 ha         1 LB4       0.162000
     39 H13          9.1420    -0.1750    -2.4270 hc         1 LB4       0.054033
     40 H15          8.2930     1.2290    -1.7840 hc         1 LB4       0.054033
     41 H14          9.7350     0.6150    -0.9760 hc         1 LB4       0.054033
     42 H12          8.0590    -3.4870     1.0490 h4         1 LB4       0.036100
     43 H17          0.2940     5.4690    -1.6920 h1         1 LB4       0.041033
     44 H18         -0.0550     5.6680     0.0280 h1         1 LB4       0.041033
     45 H19          1.4360     6.3250    -0.6550 h1         1 LB4       0.041033
     46 H21          0.0830     0.1240    -1.5940 ha         1 LB4       0.122000
     47 H22         -1.8520    -0.6590    -2.8670 ha         1 LB4       0.116000
     48 H23         -4.0400    -1.0040    -1.7480 ha         1 LB4       0.131000
     49 H1          -9.2860    -1.5650     1.1580 ha         1 LB4       0.122000
     50 H3          -6.8620    -1.5640     1.9580 h1         1 LB4       0.064200
     51 H2          -6.7850    -3.0410     1.0300 h1         1 LB4       0.064200
     52 H4         -10.7840    -0.6260    -0.5940 ha         1 LB4       0.119000
     53 H5          -7.3290    -0.1810    -3.0820 h4         1 LB4       0.018100
     54 H6          -4.7390    -2.4600     0.1560 hn         1 LB4       0.316500
     55 H7          -9.7740     0.0840    -2.7770 ha         1 LB4       0.124000
     56 H8           3.4660     2.7520    -1.2840 h4         1 LB4       0.024100
     57 H9           2.0490    -1.0200     1.4280 ha         1 LB4       0.129000
     58 H10          4.1930    -1.7510     1.2550 hn         1 LB4       0.514000
     59 H16          2.3780     4.3550    -0.0060 hn         1 LB4       0.312500
     60 H20          0.0830     0.3590     2.0030 hn         1 LB4       0.482000
     61 H24         -1.5040    -1.5810     2.9020 h1         1 LB4       0.034033
     62 H25         -2.3640    -0.5880     4.0970 h1         1 LB4       0.034033
     63 H26         -3.2730    -1.4890     2.8750 h1         1 LB4       0.034033
     64 N7           0.0980     0.6910     1.0500 nu         1 LB4      -0.955000
@<TRIPOS>BOND
     1     1    13 ar  
     2     1    29 ar  
     3     1    38 1   
     4     2    23 1   
     5     2    32 1   
     6     2    33 2   
     7     3    29 1   
     8     3    39 1   
     9     3    40 1   
    10     3    41 1   
    11     4     5 ar  
    12     4    30 ar  
    13     4    42 1   
    14     5    29 ar  
    15     5    31 1   
    16     6    32 1   
    17     6    43 1   
    18     6    44 1   
    19     6    45 1   
    20     7     8 ar  
    21     7    34 ar  
    22     7    64 1   
    23     8     9 ar  
    24     8    46 1   
    25     9    10 ar  
    26     9    47 1   
    27    10    11 ar  
    28    10    48 1   
    29    11    14 1   
    30    11    34 ar  
    31    12    23 ar  
    32    12    27 ar  
    33    12    64 1   
    34    13    28 1   
    35    13    30 ar  
    36    14    21 1   
    37    14    37 2   
    38    15    16 ar  
    39    15    17 ar  
    40    15    18 1   
    41    16    19 ar  
    42    16    49 1   
    43    17    20 ar  
    44    18    21 1   
    45    18    50 1   
    46    18    51 1   
    47    19    22 ar  
    48    19    52 1   
    49    20    22 ar  
    50    20    53 1   
    51    21    54 1   
    52    22    55 1   
    53    23    24 ar  
    54    24    25 ar  
    55    24    56 1   
    56    25    26 ar  
    57    26    27 ar  
    58    26    28 1   
    59    27    57 1   
    60    28    58 1   
    61    32    59 1   
    62    34    35 1   
    63    35    36 1   
    64    36    61 1   
    65    36    62 1   
    66    36    63 1   
    67    60    64 1   
@<TRIPOS>SUBSTRUCTURE
     1 LB4         1 TEMP              0 ****  ****    0 ROOT
