@<TRIPOS>MOLECULE
LB4
   64    67     1     0     0
SMALL
No Charge or Current Charge


@<TRIPOS>ATOM
      1 C13          7.0100     0.1530     0.0320 ca         1 LB4      -0.157000
      2 C18          0.6600     2.5070    -0.4740 c          1 LB4       0.624700
      3 C17          9.2190     0.8970    -1.0130 c3         1 LB4      -0.049800
      4 C16          8.2500    -1.5390     1.7960 ca         1 LB4       0.345900
      5 C15          9.0450    -0.7930     0.8990 ca         1 LB4       0.075000
      6 C19         -0.0240     4.2310    -2.1700 c3         1 LB4       0.094300
      7 C20         -0.9090    -0.3390    -0.0210 ca         1 LB4       0.292000
      8 C21         -0.8320    -0.1460    -1.4110 ca         1 LB4      -0.115000
      9 C22         -1.9730    -0.2930    -2.2110 ca         1 LB4      -0.091000
     10 C23         -3.2030    -0.6380    -1.6310 ca         1 LB4      -0.109000
     11 C24         -3.3150    -0.8600    -0.2350 ca         1 LB4      -0.147600
     12 C11          1.5030     0.3300     0.5630 ca         1 LB4       0.388000
     13 C12          6.3090    -0.6220     0.9770 ca         1 LB4       0.593900
     14 C27         -4.6630    -1.2010     0.3720 c          1 LB4       0.617700
     15 C1          -7.9170    -0.9210    -0.2040 ca         1 LB4       0.327300
     16 C2          -8.2540    -0.1910     0.9530 ca         1 LB4      -0.156000
     17 N1          -8.4030    -0.6060    -1.4310 nb         1 LB4      -0.676000
     18 C3          -6.9660    -2.1160    -0.1290 c3         1 LB4       0.053700
     19 C4          -9.1250     0.9050     0.8470 ca         1 LB4      -0.068000
     20 C5          -9.2430     0.4510    -1.5300 ca         1 LB4       0.345900
     21 N2          -5.5760    -1.7790    -0.4850 ns         1 LB4      -0.489900
     22 C6          -9.6280     1.2270    -0.4230 ca         1 LB4      -0.165000
     23 C7           1.7420     1.5560    -0.0770 ca         1 LB4      -0.247600
     24 C8           3.0750     1.9300    -0.2810 ca         1 LB4       0.407900
     25 N3           4.1260     1.1850     0.1130 nb         1 LB4      -0.749000
     26 C9           3.8730     0.0350     0.7290 ca         1 LB4       0.652900
     27 C10          2.5900    -0.4270     0.9890 ca         1 LB4      -0.280000
     28 N4           4.9590    -0.6880     1.1420 nu         1 LB4      -0.903800
     29 C14          8.4160     0.0760    -0.0120 ca         1 LB4      -0.049300
     30 N5           6.8960    -1.4610     1.8340 nb         1 LB4      -0.726000
     31 F1          10.3930    -0.9200     0.9130 f          1 LB4      -0.172000
     32 N6           0.8950     3.2280    -1.6260 ns         1 LB4      -0.511900
     33 O1          -0.3380     2.7080     0.2010 o          1 LB4      -0.570100
     34 C25         -2.1460    -0.7250     0.5630 ca         1 LB4       0.096100
     35 O2          -2.1750    -0.9970     1.9180 os         1 LB4      -0.343100
     36 C26         -2.1880    -2.3650     2.3580 c3         1 LB4       0.142900
     37 O3          -4.9690    -0.9430     1.5280 o          1 LB4      -0.568100
     38 H11          6.4790     0.7920    -0.6620 ha         1 LB4       0.162000
     39 H13          9.7880     0.2450    -1.6870 hc         1 LB4       0.054033
     40 H15          8.5730     1.5300    -1.6320 hc         1 LB4       0.054033
     41 H14          9.9320     1.5530    -0.5000 hc         1 LB4       0.054033
     42 H12          8.7160    -2.2220     2.5050 h4         1 LB4       0.036100
     43 H17         -0.9960     3.7650    -2.3800 h1         1 LB4       0.041033
     44 H18         -0.1580     5.0420    -1.4430 h1         1 LB4       0.041033
     45 H19          0.3890     4.6420    -3.0990 h1         1 LB4       0.041033
     46 H21          0.1140     0.1070    -1.8790 ha         1 LB4       0.122000
     47 H22         -1.9060    -0.1310    -3.2850 ha         1 LB4       0.116000
     48 H23         -4.0720    -0.7070    -2.2830 ha         1 LB4       0.131000
     49 H1          -7.8390    -0.4720     1.9170 ha         1 LB4       0.122000
     50 H3          -6.9860    -2.5350     0.8860 h1         1 LB4       0.064200
     51 H2          -7.3200    -2.9000    -0.8110 h1         1 LB4       0.064200
     52 H4          -9.4020     1.4870     1.7240 ha         1 LB4       0.119000
     53 H5          -9.6190     0.6810    -2.5260 h4         1 LB4       0.018100
     54 H6          -5.2610    -1.9680    -1.4280 hn         1 LB4       0.316500
     55 H7         -10.3050     2.0660    -0.5570 ha         1 LB4       0.124000
     56 H8           3.3290     2.8800    -0.7500 h4         1 LB4       0.024100
     57 H9           2.4400    -1.3780     1.4880 ha         1 LB4       0.129000
     58 H10          4.7240    -1.4330     1.7830 hn         1 LB4       0.514000
     59 H16          1.7360     3.0130    -2.1480 hn         1 LB4       0.312500
     60 H20          0.1250    -0.6340     1.6990 hn         1 LB4       0.482000
     61 H24         -1.2860    -2.8890     2.0170 h1         1 LB4       0.034033
     62 H25         -2.2210    -2.4130     3.4530 h1         1 LB4       0.034033
     63 H26         -3.0630    -2.8980     1.9650 h1         1 LB4       0.034033
     64 N7           0.2390    -0.2070     0.7800 nu         1 LB4      -0.955000
@<TRIPOS>BOND
     1     1    13 ar  
     2     1    29 ar  
     3     1    38 1   
     4     2    23 1   
     5     2    32 1   
     6     2    33 2   
     7     3    29 1   
     8     3    39 1   
     9     3    40 1   
    10     3    41 1   
    11     4     5 ar  
    12     4    30 ar  
    13     4    42 1   
    14     5    29 ar  
    15     5    31 1   
    16     6    32 1   
    17     6    43 1   
    18     6    44 1   
    19     6    45 1   
    20     7     8 ar  
    21     7    34 ar  
    22     7    64 1   
    23     8     9 ar  
    24     8    46 1   
    25     9    10 ar  
    26     9    47 1   
    27    10    11 ar  
    28    10    48 1   
    29    11    14 1   
    30    11    34 ar  
    31    12    23 ar  
    32    12    27 ar  
    33    12    64 1   
    34    13    28 1   
    35    13    30 ar  
    36    14    21 1   
    37    14    37 2   
    38    15    16 ar  
    39    15    17 ar  
    40    15    18 1   
    41    16    19 ar  
    42    16    49 1   
    43    17    20 ar  
    44    18    21 1   
    45    18    50 1   
    46    18    51 1   
    47    19    22 ar  
    48    19    52 1   
    49    20    22 ar  
    50    20    53 1   
    51    21    54 1   
    52    22    55 1   
    53    23    24 ar  
    54    24    25 ar  
    55    24    56 1   
    56    25    26 ar  
    57    26    27 ar  
    58    26    28 1   
    59    27    57 1   
    60    28    58 1   
    61    32    59 1   
    62    34    35 1   
    63    35    36 1   
    64    36    61 1   
    65    36    62 1   
    66    36    63 1   
    67    60    64 1   
@<TRIPOS>SUBSTRUCTURE
     1 LB4         1 TEMP              0 ****  ****    0 ROOT
