@<TRIPOS>MOLECULE
LB5
   68    71     1     0     0
SMALL
No Charge or Current Charge


@<TRIPOS>ATOM
      1 N1           5.9600     0.2240     1.1790 nc         1 LB5      -0.510800
      2 C2          10.4990     0.3430     0.1580 ca         1 LB5      -0.110000
      3 O2           4.0120     0.7450    -3.0230 o          1 LB5      -0.624100
      4 N3           0.2090    -0.8100    -0.1240 nc         1 LB5      -0.666000
      5 C4           9.8450     2.2990     1.4470 ca         1 LB5      -0.107000
      6 N4          -4.2310    -1.5270    -1.4260 ns         1 LB5      -0.479900
      7 C5           8.4940     2.0150     1.1880 ca         1 LB5      -0.102000
      8 C6           8.1350     0.8940     0.4110 ca         1 LB5      -0.005200
      9 C10          3.8330     0.4330    -1.8550 c          1 LB5       0.655700
     10 C8           4.8950     0.4420    -0.8320 cd         1 LB5      -0.287600
     11 C7           6.1950     0.8020    -1.0810 cc         1 LB5      -0.085000
     12 C9           4.8090     0.1050     0.5420 cd         1 LB5       0.267900
     13 N            6.7830     0.6480     0.1630 na         1 LB5       0.223000
     14 C3          10.8470     1.4640     0.9300 ca         1 LB5      -0.096000
     15 C1           9.1460     0.0460    -0.1070 ca         1 LB5      -0.042300
     16 C            8.8050    -1.1890    -0.9390 c3         1 LB5      -0.049800
     17 N2           2.6090     0.0390    -1.3790 ns         1 LB5      -0.499900
     18 C11          1.3830    -0.0580    -2.1940 c3         1 LB5       0.075700
     19 C12          0.1620    -0.5190    -1.4230 cd         1 LB5       0.424700
     20 S           -1.4020    -0.6980    -2.2080 ss         1 LB5      -0.000400
     21 C14         -2.0190    -1.2050    -0.6410 cd         1 LB5      -0.310600
     22 C13         -1.0350    -1.1990     0.3130 cc         1 LB5       0.353900
     23 C15         -3.4020    -1.5890    -0.3330 c          1 LB5       0.650700
     24 O1          -3.7820    -1.9310     0.7760 o          1 LB5      -0.585100
     25 C16         -5.6780    -1.8450    -1.4270 c3         1 LB5       0.027700
     26 C25         -6.0480    -2.6540    -2.7080 c          1 LB5       0.592100
     27 O           -5.2680    -2.8760    -3.6210 o          1 LB5      -0.599100
     28 N5          -7.3170    -3.1180    -2.7880 nt         1 LB5      -0.602000
     29 C17         -6.5530    -0.5680    -1.2690 c3         1 LB5      -0.084400
     30 C18         -6.2910     0.2430     0.0280 c3         1 LB5      -0.073400
     31 C19         -7.1480     1.5350     0.2010 c6         1 LB5      -0.060700
     32 C24         -6.6590     2.3530     1.4310 c6         1 LB5      -0.071400
     33 C23         -7.4800     3.6510     1.6230 c6         1 LB5      -0.072900
     34 C22         -8.9910     3.3430     1.7470 c6         1 LB5      -0.074400
     35 C21         -9.4940     2.5390     0.5250 c6         1 LB5      -0.072900
     36 C20         -8.6730     1.2400     0.3260 c6         1 LB5      -0.071400
     37 H1          11.2860    -0.2970    -0.2340 ha         1 LB5       0.119000
     38 H2          10.1140     3.1670     2.0460 ha         1 LB5       0.121000
     39 H3          -3.7960    -1.2730    -2.3050 hn         1 LB5       0.323500
     40 H4           7.7220     2.6680     1.5890 ha         1 LB5       0.127000
     41 H5           6.7200     1.1320    -1.9690 h4         1 LB5       0.175000
     42 H6           3.9390    -0.2250     1.0970 h4         1 LB5       0.043100
     43 H7          11.8940     1.6830     1.1290 ha         1 LB5       0.119000
     44 H8           8.0200    -1.7870    -0.4620 hc         1 LB5       0.052700
     45 H9           8.4540    -0.9050    -1.9380 hc         1 LB5       0.052700
     46 H10          9.6750    -1.8430    -1.0700 hc         1 LB5       0.052700
     47 H11          2.5450    -0.2040    -0.3980 hn         1 LB5       0.346500
     48 H12          1.1700     0.9270    -2.6280 h1         1 LB5       0.068200
     49 H13          1.5610    -0.7600    -3.0180 h1         1 LB5       0.068200
     50 H14         -1.1500    -1.4660     1.3560 h4         1 LB5       0.064100
     51 H15         -5.8900    -2.5100    -0.5800 h1         1 LB5       0.077700
     52 H16         -7.9710    -2.9460    -2.0380 hn         1 LB5       0.315500
     53 H17         -7.5980    -3.6440    -3.6020 hn         1 LB5       0.315500
     54 H18         -6.3920     0.0850    -2.1360 hc         1 LB5       0.055700
     55 H19         -7.6070    -0.8650    -1.2920 hc         1 LB5       0.055700
     56 H20         -6.4410    -0.4180     0.8910 hc         1 LB5       0.043700
     57 H21         -5.2320     0.5290     0.0450 hc         1 LB5       0.043700
     58 H22         -6.9820     2.1420    -0.7010 hc         1 LB5       0.046700
     59 H23         -6.7300     1.7380     2.3390 hc         1 LB5       0.037700
     60 H24         -5.5970     2.6090     1.3130 hc         1 LB5       0.037700
     61 H25         -7.1330     4.1830     2.5200 hc         1 LB5       0.039450
     62 H26         -7.3080     4.3270     0.7740 hc         1 LB5       0.039450
     63 H27         -9.1790     2.7740     2.6690 hc         1 LB5       0.039200
     64 H28         -9.5570     4.2800     1.8370 hc         1 LB5       0.039200
     65 H29        -10.5560     2.2920     0.6550 hc         1 LB5       0.039450
     66 H30         -9.4260     3.1600    -0.3790 hc         1 LB5       0.039450
     67 H31         -9.0420     0.7300    -0.5730 hc         1 LB5       0.037700
     68 H32         -8.8530     0.5580     1.1690 hc         1 LB5       0.037700
@<TRIPOS>BOND
     1     1    12 2   
     2     1    13 1   
     3     2    14 ar  
     4     2    15 ar  
     5     2    37 1   
     6     3     9 2   
     7     4    19 2   
     8     4    22 1   
     9     5     7 ar  
    10     5    14 ar  
    11     5    38 1   
    12     6    23 1   
    13     6    25 1   
    14     6    39 1   
    15     7     8 ar  
    16     7    40 1   
    17     8    13 1   
    18     8    15 ar  
    19     9    10 1   
    20     9    17 1   
    21    10    11 2   
    22    10    12 1   
    23    11    13 1   
    24    11    41 1   
    25    12    42 1   
    26    14    43 1   
    27    15    16 1   
    28    16    44 1   
    29    16    45 1   
    30    16    46 1   
    31    17    18 1   
    32    17    47 1   
    33    18    19 1   
    34    18    48 1   
    35    18    49 1   
    36    19    20 1   
    37    20    21 1   
    38    21    22 2   
    39    21    23 1   
    40    22    50 1   
    41    23    24 2   
    42    25    26 1   
    43    25    29 1   
    44    25    51 1   
    45    26    27 2   
    46    26    28 1   
    47    28    52 1   
    48    28    53 1   
    49    29    30 1   
    50    29    54 1   
    51    29    55 1   
    52    30    31 1   
    53    30    56 1   
    54    30    57 1   
    55    31    32 1   
    56    31    36 1   
    57    31    58 1   
    58    32    33 1   
    59    32    59 1   
    60    32    60 1   
    61    33    34 1   
    62    33    61 1   
    63    33    62 1   
    64    34    35 1   
    65    34    63 1   
    66    34    64 1   
    67    35    36 1   
    68    35    65 1   
    69    35    66 1   
    70    36    67 1   
    71    36    68 1   
@<TRIPOS>SUBSTRUCTURE
     1 LB5         1 TEMP              0 ****  ****    0 ROOT
