@<TRIPOS>MOLECULE
LB5
   68    71     1     0     0
SMALL
abcg2


@<TRIPOS>ATOM
      1 N1           6.5250    -0.8880     0.1240 nc         1 LB5      -0.510800
      2 C2          10.6980     0.0570    -0.6630 ca         1 LB5      -0.110000
      3 O2           3.5760     2.5390    -0.6450 o          1 LB5      -0.624100
      4 N3           0.5180    -1.2500    -0.3200 nc         1 LB5      -0.666000
      5 C4          10.3140     1.5970     1.1430 ca         1 LB5      -0.107000
      6 N4          -4.1600    -1.2130    -0.5300 ns         1 LB5      -0.479900
      7 C5           8.9510     1.3780     1.0220 ca         1 LB5      -0.102000
      8 C6           8.4750     0.5030     0.0550 ca         1 LB5      -0.005200
      9 C10          3.6400     1.3280    -0.4720 c          1 LB5       0.655700
     10 C8           4.9240     0.6470    -0.2580 cd         1 LB5      -0.287600
     11 C7           6.1530     1.2720    -0.2770 cc         1 LB5      -0.085000
     12 C9           5.2310    -0.7070    -0.0020 cd         1 LB5       0.267900
     13 N            7.0710     0.3210    -0.0500 na         1 LB5       0.223000
     14 C3          11.1890     0.9270     0.3000 ca         1 LB5      -0.096000
     15 C1           9.3330    -0.1720    -0.8150 ca         1 LB5      -0.042300
     16 C            8.8290    -1.0940    -1.8850 c3         1 LB5      -0.049800
     17 N2           2.5490     0.5440    -0.4580 ns         1 LB5      -0.499900
     18 C11          1.2320     1.0820    -0.6720 c3         1 LB5       0.075700
     19 C12          0.2190    -0.0010    -0.4870 cd         1 LB5       0.424700
     20 S           -1.4670     0.3350    -0.4840 ss         1 LB5      -0.000400
     21 C14         -1.7800    -1.3450    -0.2470 cd         1 LB5      -0.310600
     22 C13         -0.5970    -2.0140    -0.1780 cc         1 LB5       0.353900
     23 C15         -3.1190    -1.9540    -0.1100 c          1 LB5       0.650700
     24 O1          -3.2490    -3.0630     0.3830 o          1 LB5      -0.585100
     25 C16         -5.5030    -1.7320    -0.4810 c3         1 LB5       0.027700
     26 C25         -5.6650    -2.9060    -1.4510 c          1 LB5       0.592100
     27 O           -5.0260    -2.9730    -2.4880 o          1 LB5      -0.599100
     28 N5          -6.5950    -3.7970    -1.0870 nt         1 LB5      -0.602000
     29 C17         -6.5040    -0.6280    -0.8330 c3         1 LB5      -0.084400
     30 C18         -6.5460     0.4860     0.2070 c3         1 LB5      -0.073400
     31 C19         -7.4390     1.6670    -0.1720 c6         1 LB5      -0.060700
     32 C24         -7.3860     2.7380     0.9190 c6         1 LB5      -0.071400
     33 C23         -8.2650     3.9420     0.5990 c6         1 LB5      -0.072900
     34 C22         -9.7070     3.5190     0.3360 c6         1 LB5      -0.074400
     35 C21         -9.7720     2.4610    -0.7600 c6         1 LB5      -0.072900
     36 C20         -8.8890     1.2590    -0.4380 c6         1 LB5      -0.071400
     37 H1          11.3890    -0.4490    -1.3260 ha         1 LB5       0.119000
     38 H2          10.6870     2.2770     1.8960 ha         1 LB5       0.121000
     39 H3          -3.9950    -0.4300    -1.1460 hn         1 LB5       0.323500
     40 H4           8.2550     1.8790     1.6820 ha         1 LB5       0.127000
     41 H5           6.4250     2.3000    -0.4490 h4         1 LB5       0.175000
     42 H6           4.5620    -1.5480     0.1030 h4         1 LB5       0.043100
     43 H7          12.2560     1.0860     0.3860 ha         1 LB5       0.119000
     44 H8           8.4820    -2.0400    -1.4700 hc         1 LB5       0.052700
     45 H9           7.9920    -0.6590    -2.4340 hc         1 LB5       0.052700
     46 H10          9.6200    -1.3130    -2.6000 hc         1 LB5       0.052700
     47 H11          2.6270    -0.4580    -0.3740 hn         1 LB5       0.346500
     48 H12          1.0260     1.8970     0.0260 h1         1 LB5       0.068200
     49 H13          1.1290     1.5000    -1.6790 h1         1 LB5       0.068200
     50 H14         -0.5030    -3.0800    -0.0320 h4         1 LB5       0.064100
     51 H15         -5.7070    -2.0770     0.5370 h1         1 LB5       0.077700
     52 H16         -7.0710    -3.7390    -0.2030 hn         1 LB5       0.315500
     53 H17         -6.8250    -4.5730    -1.6860 hn         1 LB5       0.315500
     54 H18         -6.2560    -0.2230    -1.8200 hc         1 LB5       0.055700
     55 H19         -7.4890    -1.0880    -0.9270 hc         1 LB5       0.055700
     56 H20         -6.8860     0.0670     1.1610 hc         1 LB5       0.043700
     57 H21         -5.5350     0.8640     0.3860 hc         1 LB5       0.043700
     58 H22         -7.0430     2.1100    -1.0970 hc         1 LB5       0.046700
     59 H23         -7.7160     2.2940     1.8670 hc         1 LB5       0.037700
     60 H24         -6.3510     3.0580     1.0730 hc         1 LB5       0.037700
     61 H25         -8.2230     4.6630     1.4190 hc         1 LB5       0.039450
     62 H26         -7.8720     4.4550    -0.2850 hc         1 LB5       0.039450
     63 H27        -10.1390     3.1140     1.2580 hc         1 LB5       0.039200
     64 H28        -10.3140     4.3860     0.0630 hc         1 LB5       0.039200
     65 H29        -10.8030     2.1340    -0.9120 hc         1 LB5       0.039450
     66 H30         -9.4460     2.9030    -1.7080 hc         1 LB5       0.039450
     67 H31         -8.9410     0.5440    -1.2630 hc         1 LB5       0.037700
     68 H32         -9.2830     0.7430     0.4460 hc         1 LB5       0.037700
@<TRIPOS>BOND
     1     1    12 2   
     2     1    13 1   
     3     2    14 ar  
     4     2    15 ar  
     5     2    37 1   
     6     3     9 2   
     7     4    19 2   
     8     4    22 1   
     9     5     7 ar  
    10     5    14 ar  
    11     5    38 1   
    12     6    23 1   
    13     6    25 1   
    14     6    39 1   
    15     7     8 ar  
    16     7    40 1   
    17     8    13 1   
    18     8    15 ar  
    19     9    10 1   
    20     9    17 1   
    21    10    11 2   
    22    10    12 1   
    23    11    13 1   
    24    11    41 1   
    25    12    42 1   
    26    14    43 1   
    27    15    16 1   
    28    16    44 1   
    29    16    45 1   
    30    16    46 1   
    31    17    18 1   
    32    17    47 1   
    33    18    19 1   
    34    18    48 1   
    35    18    49 1   
    36    19    20 1   
    37    20    21 1   
    38    21    22 2   
    39    21    23 1   
    40    22    50 1   
    41    23    24 2   
    42    25    26 1   
    43    25    29 1   
    44    25    51 1   
    45    26    27 2   
    46    26    28 1   
    47    28    52 1   
    48    28    53 1   
    49    29    30 1   
    50    29    54 1   
    51    29    55 1   
    52    30    31 1   
    53    30    56 1   
    54    30    57 1   
    55    31    32 1   
    56    31    36 1   
    57    31    58 1   
    58    32    33 1   
    59    32    59 1   
    60    32    60 1   
    61    33    34 1   
    62    33    61 1   
    63    33    62 1   
    64    34    35 1   
    65    34    63 1   
    66    34    64 1   
    67    35    36 1   
    68    35    65 1   
    69    35    66 1   
    70    36    67 1   
    71    36    68 1   
@<TRIPOS>SUBSTRUCTURE
     1 LB5         1 TEMP              0 ****  ****    0 ROOT
