@<TRIPOS>MOLECULE
LB6
   28    29     1     0     0
SMALL
abcg2


@<TRIPOS>ATOM
      1 C10         32.3450    51.3450   -29.0280 c3         1 LB6      -0.016400
      2 C11         31.3710    51.8850   -27.9810 c          1 LB6       0.604100
      3 C12         31.7370    54.2470   -28.6950 c3         1 LB6      -0.069000
      4 C13         33.1800    54.4880   -28.1810 c          1 LB6       0.698000
      5 C2          32.7210    52.2920   -31.3170 cc         1 LB6      -0.118100
      6 C3          32.0780    52.3250   -32.5180 cd         1 LB6      -0.272200
      7 C4          29.7760    51.2980   -33.1740 ca         1 LB6      -0.073000
      8 C5          28.7200    50.5620   -32.6720 ca         1 LB6      -0.130000
      9 C6          28.7360    50.1380   -31.3360 ca         1 LB6      -0.014900
     10 C7          29.7720    50.4330   -30.4720 ca         1 LB6      -0.077000
     11 C8          30.8230    51.1830   -30.9970 ca         1 LB6      -0.052200
     12 C9          30.8500    51.6180   -32.3400 ca         1 LB6      -0.087800
     13 N1          31.9700    51.6120   -30.3930 na         1 LB6      -0.064700
     14 N2          31.0120    53.1770   -28.0470 ns         1 LB6      -0.443900
     15 O1          30.9180    51.1200   -27.1400 o          1 LB6      -0.655100
     16 O2          33.6170    53.7220   -27.3050 o          1 LB6      -0.721000
     17 O3          33.7580    55.4470   -28.7240 o          1 LB6      -0.721000
     18 H1          32.4200    50.2680   -28.8680 h1         1 LB6       0.089700
     19 H2          33.3310    51.7720   -28.8550 h1         1 LB6       0.089700
     20 H3          31.7610    54.1060   -29.7760 h1         1 LB6       0.039700
     21 H4          31.1570    55.1570   -28.5380 h1         1 LB6       0.039700
     22 H5          33.6750    52.7100   -31.0320 h4         1 LB6       0.234000
     23 H6          32.4350    52.7970   -33.4190 ha         1 LB6       0.199000
     24 H7          29.7640    51.6180   -34.2090 ha         1 LB6       0.106000
     25 H8          27.8870    50.3110   -33.3150 ha         1 LB6       0.112000
     26 H9          29.7690    50.0950   -29.4440 ha         1 LB6       0.148000
     27 H10         30.3990    53.4590   -27.2950 hn         1 LB6       0.292500
     28 BR          27.2780    49.1160   -30.6920 br         1 LB6      -0.138100
@<TRIPOS>BOND
     1     1     2 1   
     2     1    13 1   
     3     1    18 1   
     4     1    19 1   
     5     2    14 1   
     6     2    15 2   
     7     3     4 1   
     8     3    14 1   
     9     3    20 1   
    10     3    21 1   
    11     4    16 1   
    12     4    17 1   
    13     5     6 2   
    14     5    13 1   
    15     5    22 1   
    16     6    12 1   
    17     6    23 1   
    18     7     8 ar  
    19     7    12 ar  
    20     7    24 1   
    21     8     9 ar  
    22     8    25 1   
    23     9    10 ar  
    24     9    28 1   
    25    10    11 ar  
    26    10    26 1   
    27    11    12 ar  
    28    11    13 1   
    29    14    27 1   
@<TRIPOS>SUBSTRUCTURE
     1 LB6         1 TEMP              0 ****  ****    0 ROOT
