@<TRIPOS>MOLECULE
LB6
   28    29     1     0     0
SMALL
No Charge or Current Charge


@<TRIPOS>ATOM
      1 C10         32.2220    51.5320   -29.2670 c3         1 LB6      -0.016400
      2 C11         31.2690    52.0890   -28.1920 c          1 LB6       0.604100
      3 C12         32.3480    54.4080   -28.2950 c3         1 LB6      -0.069000
      4 C13         33.4920    54.4460   -27.2490 c          1 LB6       0.698000
      5 C2          32.3560    52.6780   -31.5810 cc         1 LB6      -0.118100
      6 C3          31.5720    52.5440   -32.7190 cd         1 LB6      -0.272200
      7 C4          29.5200    51.1030   -33.3530 ca         1 LB6      -0.073000
      8 C5          28.6470    50.1200   -32.8400 ca         1 LB6      -0.130000
      9 C6          28.8110    49.6430   -31.5170 ca         1 LB6      -0.014900
     10 C7          29.8410    50.1420   -30.6910 ca         1 LB6      -0.077000
     11 C8          30.6910    51.1260   -31.2240 ca         1 LB6      -0.052200
     12 C9          30.5290    51.5760   -32.5070 ca         1 LB6      -0.087800
     13 N1          31.7750    51.7900   -30.6520 na         1 LB6      -0.064700
     14 N2          31.2910    53.4420   -27.9110 ns         1 LB6      -0.443900
     15 O1          30.4680    51.3740   -27.6050 o          1 LB6      -0.655100
     16 O2          33.4070    55.2450   -26.3280 o          1 LB6      -0.721000
     17 O3          34.4100    53.6490   -27.3720 o          1 LB6      -0.721000
     18 H1          32.3040    50.4510   -29.1150 h1         1 LB6       0.089700
     19 H2          33.2170    51.9620   -29.1170 h1         1 LB6       0.089700
     20 H3          32.7640    54.1630   -29.2780 h1         1 LB6       0.039700
     21 H4          31.9010    55.4090   -28.3580 h1         1 LB6       0.039700
     22 H5          33.2280    53.2920   -31.3690 h4         1 LB6       0.234000
     23 H6          31.7370    53.0910   -33.6450 ha         1 LB6       0.199000
     24 H7          29.4140    51.4770   -34.3690 ha         1 LB6       0.106000
     25 H8          27.8500    49.7260   -33.4650 ha         1 LB6       0.112000
     26 H9          29.9660    49.7690   -29.6790 ha         1 LB6       0.148000
     27 H10         30.6070    53.7440   -27.2270 hn         1 LB6       0.292500
     28 Br          27.6230    48.3060   -30.8410 br         1 LB6      -0.138100
@<TRIPOS>BOND
     1     1     2 1   
     2     1    13 1   
     3     1    18 1   
     4     1    19 1   
     5     2    14 1   
     6     2    15 2   
     7     3     4 1   
     8     3    14 1   
     9     3    20 1   
    10     3    21 1   
    11     4    16 1   
    12     4    17 1   
    13     5     6 2   
    14     5    13 1   
    15     5    22 1   
    16     6    12 1   
    17     6    23 1   
    18     7     8 ar  
    19     7    12 ar  
    20     7    24 1   
    21     8     9 ar  
    22     8    25 1   
    23     9    10 ar  
    24     9    28 1   
    25    10    11 ar  
    26    10    26 1   
    27    11    12 ar  
    28    11    13 1   
    29    14    27 1   
@<TRIPOS>SUBSTRUCTURE
     1 LB6         1 TEMP              0 ****  ****    0 ROOT
