@<TRIPOS>MOLECULE
LB7
   53    56     1     0     0
SMALL
bcc


@<TRIPOS>ATOM
      1 C13          6.1470     0.7140    -0.2230 c          1 LB7       0.710100
      2 C18         -8.2140     0.4490     0.3280 c3         1 LB7       0.044600
      3 C17         -6.3700     0.3930    -1.3690 cc         1 LB7       0.404400
      4 C16         -2.7830     2.6330    -1.1790 c3         1 LB7       0.128700
      5 C15         -4.7710     0.2540    -0.0350 cd         1 LB7       0.581500
      6 C19          8.3210     1.8960     0.4420 cx         1 LB7      -0.094400
      7 C20          8.4920     1.4330    -0.9550 cx         1 LB7      -0.094400
      8 C11         -3.4260     0.1060     0.5330 ca         1 LB7      -0.120500
      9 C12         -2.2880     0.6080    -0.1020 ca         1 LB7       0.148100
     10 C1           1.4730    -1.1150    -0.2670 ca         1 LB7       0.222800
     11 N1           2.6600    -1.6760    -0.2600 nb         1 LB7      -0.265000
     12 N2           3.7750    -0.9890    -0.3100 nb         1 LB7      -0.358000
     13 C2           3.6900     0.3330    -0.3840 ca         1 LB7       0.539200
     14 C3           2.4800     1.0220    -0.3590 ca         1 LB7      -0.378300
     15 C4           1.3060     0.2950    -0.2720 ca         1 LB7       0.188300
     16 N3           4.8510     1.0790    -0.4900 ns         1 LB7      -0.559400
     17 N4           0.1040     0.9190    -0.1960 nu         1 LB7      -0.619000
     18 N5           0.3320    -3.1160     0.4010 ns         1 LB7      -0.556900
     19 O1          -0.5330    -1.8700    -1.2720 o          1 LB7      -0.576100
     20 C6          -0.7110    -4.1120     0.3840 c3         1 LB7       0.096300
     21 C7          -1.0250     0.4110     0.4670 ca         1 LB7       0.118600
     22 C8          -0.9020    -0.2700     1.6710 ca         1 LB7      -0.139000
     23 C9          -2.0300    -0.7760     2.2980 ca         1 LB7      -0.128000
     24 C10         -3.2780    -0.5930     1.7330 ca         1 LB7      -0.097000
     25 C14          7.1180     1.8120    -0.4630 cx         1 LB7      -0.256700
     26 O3           6.4790    -0.3840     0.1720 o          1 LB7      -0.528100
     27 N6          -5.8370     0.2950     0.7420 nc         1 LB7      -0.540800
     28 N7          -6.8450     0.3830    -0.1220 na         1 LB7      -0.027400
     29 N8          -5.0600     0.3130    -1.3550 nd         1 LB7      -0.661000
     30 H17         -8.4820    -0.4640     0.8550 h1         1 LB7       0.059700
     31 H16         -8.3490     1.3020     0.9890 h1         1 LB7       0.059700
     32 H18         -8.8610     0.5640    -0.5370 h1         1 LB7       0.059700
     33 H15         -7.0030     0.4580    -2.2400 h5         1 LB7       0.065100
     34 H12         -3.8060     2.7200    -0.8080 h1         1 LB7       0.032700
     35 H14         -2.1250     3.2160    -0.5280 h1         1 LB7       0.032700
     36 H13         -2.7410     3.0510    -2.1830 h1         1 LB7       0.032700
     37 H19          8.3940     1.1660     1.2380 hc         1 LB7       0.083700
     38 H20          8.6580     2.8900     0.7050 hc         1 LB7       0.083700
     39 H21          8.9510     2.0990    -1.6720 hc         1 LB7       0.083700
     40 H22          8.6810     0.3810    -1.1260 hc         1 LB7       0.083700
     41 H4           2.4610     2.1050    -0.3710 ha         1 LB7       0.142000
     42 H5           4.7070     2.0500    -0.7210 hn         1 LB7       0.317500
     43 H6           0.1140     1.9100    -0.3860 hn         1 LB7       0.442800
     44 H7           1.0770    -3.2040     1.0720 hn         1 LB7       0.328500
     45 H2          -0.4950    -4.8490     1.1510 h1         1 LB7       0.039700
     46 H1          -1.6850    -3.6660     0.5960 h1         1 LB7       0.039700
     47 H3          -0.7680    -4.6220    -0.5780 h1         1 LB7       0.039700
     48 H8           0.0720    -0.3920     2.1270 ha         1 LB7       0.139000
     49 H9          -1.9300    -1.3150     3.2310 ha         1 LB7       0.137000
     50 H10         -4.1540    -1.0000     2.2190 ha         1 LB7       0.148000
     51 H11          6.7180     2.7520    -0.8250 hc         1 LB7       0.083700
     52 C5           0.3220    -2.0650    -0.4210 c          1 LB7       0.583600
     53 O2          -2.3560     1.2810    -1.2750 os         1 LB7      -0.302900
@<TRIPOS>BOND
     1     1    16 1   
     2     1    25 1   
     3     1    26 2   
     4     2    28 1   
     5     2    30 1   
     6     2    31 1   
     7     2    32 1   
     8     3    28 1   
     9     3    29 2   
    10     3    33 1   
    11     4    34 1   
    12     4    35 1   
    13     4    36 1   
    14     4    53 1   
    15     5     8 1   
    16     5    27 2   
    17     5    29 1   
    18     6     7 1   
    19     6    25 1   
    20     6    37 1   
    21     6    38 1   
    22     7    25 1   
    23     7    39 1   
    24     7    40 1   
    25     8     9 ar  
    26     8    24 ar  
    27     9    21 ar  
    28     9    53 1   
    29    10    11 ar  
    30    10    15 ar  
    31    10    52 1   
    32    11    12 ar  
    33    12    13 ar  
    34    13    14 ar  
    35    13    16 1   
    36    14    15 ar  
    37    14    41 1   
    38    15    17 1   
    39    16    42 1   
    40    17    21 1   
    41    17    43 1   
    42    18    20 1   
    43    18    44 1   
    44    18    52 1   
    45    19    52 2   
    46    20    45 1   
    47    20    46 1   
    48    20    47 1   
    49    21    22 ar  
    50    22    23 ar  
    51    22    48 1   
    52    23    24 ar  
    53    23    49 1   
    54    24    50 1   
    55    25    51 1   
    56    27    28 1   
@<TRIPOS>SUBSTRUCTURE
     1 LB7         1 TEMP              0 ****  ****    0 ROOT
