@<TRIPOS>MOLECULE
LB7
   53    56     1     0     0
SMALL
No Charge or Current Charge


@<TRIPOS>ATOM
      1 C13          6.1380     0.7620     0.2050 c          1 LB7       0.643100
      2 C18         -8.1730     1.8380     0.1460 c3         1 LB7       0.073900
      3 C17         -6.3910     1.1920    -1.5640 cc         1 LB7       0.404400
      4 C16         -2.3760     2.5610    -1.4020 c3         1 LB7       0.151900
      5 C15         -4.8720     0.6930    -0.1510 cd         1 LB7       0.581500
      6 C19          8.1120     2.2390    -0.6470 cx         1 LB7      -0.094400
      7 C20          6.8420     3.0160    -0.9010 cx         1 LB7      -0.094400
      8 C11         -3.5810     0.2350     0.4110 ca         1 LB7      -0.120500
      9 C12         -2.3420     0.4130    -0.2630 ca         1 LB7       0.148100
     10 C1           1.7040    -1.8280     0.0360 ca         1 LB7       0.157500
     11 N1           2.9970    -2.1820     0.2990 nb         1 LB7      -0.265000
     12 N2           3.9770    -1.2600     0.3220 nb         1 LB7      -0.358000
     13 C2           3.7100     0.0410     0.0740 ca         1 LB7       0.473900
     14 C3           2.4090     0.4850    -0.1810 ca         1 LB7      -0.295000
     15 C4           1.3720    -0.4550    -0.1880 ca         1 LB7       0.392000
     16 N3           4.7760     0.9550     0.1340 ns         1 LB7      -0.325900
     17 N4           0.0850     0.0650    -0.3850 nu         1 LB7      -0.951000
     18 N5           1.0580    -4.1440     0.5590 ns         1 LB7      -0.489900
     19 O1          -0.3660    -2.8990    -0.6830 o          1 LB7      -0.576100
     20 C6           0.2460    -5.3630     0.5760 c3         1 LB7       0.096300
     21 C7          -1.1400    -0.1110     0.2860 ca         1 LB7       0.257000
     22 C8          -1.1740    -0.7570     1.5350 ca         1 LB7      -0.121000
     23 C9          -2.3870    -0.9100     2.2200 ca         1 LB7      -0.110000
     24 C10         -3.5780    -0.4240     1.6620 ca         1 LB7      -0.079000
     25 C14          6.9180     2.0540     0.2700 cx         1 LB7      -0.256700
     26 O3           6.6930    -0.3280     0.2170 o          1 LB7      -0.528100
     27 N6          -5.8860     1.0520     0.6270 nc         1 LB7      -0.540800
     28 N7          -6.8440     1.3720    -0.2790 na         1 LB7      -0.056700
     29 N8          -5.1460     0.7570    -1.5060 nd         1 LB7      -0.661000
     30 H17         -8.6620     1.0600     0.7450 h1         1 LB7       0.059700
     31 H16         -8.0690     2.7490     0.7490 h1         1 LB7       0.059700
     32 H18         -8.7920     2.0580    -0.7330 h1         1 LB7       0.059700
     33 H15         -6.9890     1.3820    -2.4470 h5         1 LB7       0.065100
     34 H12         -3.3350     2.8720    -0.9690 h1         1 LB7       0.032700
     35 H14         -1.5700     2.9940    -0.7960 h1         1 LB7       0.032700
     36 H13         -2.3060     2.9770    -2.4140 h1         1 LB7       0.032700
     37 H19          8.3610     1.4380    -1.3390 hc         1 LB7       0.083700
     38 H20          8.9700     2.7850    -0.2600 hc         1 LB7       0.083700
     39 H21          6.8490     4.0820    -0.6850 hc         1 LB7       0.083700
     40 H22          6.2450     2.7340    -1.7660 hc         1 LB7       0.083700
     41 H4           2.2120     1.5400    -0.3420 ha         1 LB7       0.124000
     42 H5           4.4870     1.9240     0.1150 hn         1 LB7       0.151000
     43 H6           0.0380     0.7730    -1.1190 hn         1 LB7       0.498000
     44 H7           1.9590    -4.1500     1.0260 hn         1 LB7       0.328500
     45 H2           0.7640    -6.1410     1.1510 h1         1 LB7       0.039700
     46 H1          -0.7250    -5.1540     1.0420 h1         1 LB7       0.039700
     47 H3           0.0900    -5.7170    -0.4520 h1         1 LB7       0.039700
     48 H8          -0.2600    -1.1290     1.9870 ha         1 LB7       0.121000
     49 H9          -2.4050    -1.4120     3.1860 ha         1 LB7       0.119000
     50 H10         -4.5090    -0.5740     2.2060 ha         1 LB7       0.130000
     51 H11          6.9910     2.4920     1.2620 hc         1 LB7       0.083700
     52 C5           0.6900    -2.9630    -0.0640 c          1 LB7       0.516600
     53 O2          -2.2640     1.1290    -1.4420 os         1 LB7      -0.326100
@<TRIPOS>BOND
     1     1    16 1   
     2     1    25 1   
     3     1    26 2   
     4     2    28 1   
     5     2    30 1   
     6     2    31 1   
     7     2    32 1   
     8     3    28 1   
     9     3    29 2   
    10     3    33 1   
    11     4    34 1   
    12     4    35 1   
    13     4    36 1   
    14     4    53 1   
    15     5     8 1   
    16     5    27 2   
    17     5    29 1   
    18     6     7 1   
    19     6    25 1   
    20     6    37 1   
    21     6    38 1   
    22     7    25 1   
    23     7    39 1   
    24     7    40 1   
    25     8     9 ar  
    26     8    24 ar  
    27     9    21 ar  
    28     9    53 1   
    29    10    11 ar  
    30    10    15 ar  
    31    10    52 1   
    32    11    12 ar  
    33    12    13 ar  
    34    13    14 ar  
    35    13    16 1   
    36    14    15 ar  
    37    14    41 1   
    38    15    17 1   
    39    16    42 1   
    40    17    21 1   
    41    17    43 1   
    42    18    20 1   
    43    18    44 1   
    44    18    52 1   
    45    19    52 2   
    46    20    45 1   
    47    20    46 1   
    48    20    47 1   
    49    21    22 ar  
    50    22    23 ar  
    51    22    48 1   
    52    23    24 ar  
    53    23    49 1   
    54    24    50 1   
    55    25    51 1   
    56    27    28 1   
@<TRIPOS>SUBSTRUCTURE
     1 LB7         1 TEMP              0 ****  ****    0 ROOT
