@<TRIPOS>MOLECULE
LB8
   72    75     1     0     0
SMALL
abcg2


@<TRIPOS>ATOM
      1 N1          -5.9150     0.7750    -1.5220 nc         1 LB8      -0.483800
      2 C2           1.5770     2.8110    -0.6120 ca         1 LB8      -0.104000
      3 O2           2.2940    -1.6940    -1.9220 o          1 LB8      -0.596100
      4 N3           3.9090    -0.7460    -0.6760 ns         1 LB8      -0.482900
      5 C4           1.8520     0.4590    -1.0180 ca         1 LB8      -0.130600
      6 N4           4.5770    -4.2670    -0.6010 nt         1 LB8      -0.603000
      7 C5           0.4700     0.3250    -1.0940 ca         1 LB8      -0.051000
      8 C6          -0.3540     1.4230    -0.8890 ca         1 LB8      -0.042000
      9 C19          4.7990    -1.8710    -0.7930 c3         1 LB8       0.031700
     10 C28          4.2270    -3.0910    -0.0670 c          1 LB8       0.592100
     11 O1           3.5590    -2.9750     0.9480 o          1 LB8      -0.595100
     12 C20          6.1630    -1.5160    -0.1990 c3         1 LB8      -0.086400
     13 C21          6.8660    -0.3960    -0.9590 c3         1 LB8      -0.071400
     14 C22          8.2560    -0.0570    -0.4240 c6         1 LB8      -0.061700
     15 C27          8.2170     0.5100     0.9970 c6         1 LB8      -0.071400
     16 C26          9.6050     0.8960     1.4980 c6         1 LB8      -0.072900
     17 C25         10.2950     1.8710     0.5510 c6         1 LB8      -0.074400
     18 C24         10.3530     1.3050    -0.8630 c6         1 LB8      -0.072900
     19 C23          8.9620     0.9250    -1.3610 c6         1 LB8      -0.071400
     20 C3           2.4050     1.7130    -0.7810 ca         1 LB8      -0.098000
     21 C1           0.1920     2.6910    -0.6470 ca         1 LB8      -0.089300
     22 C           -0.6870     3.8860    -0.4360 c3         1 LB8      -0.051800
     23 N           -1.7530     1.2960    -0.9420 ns         1 LB8      -0.153000
     24 C7          -2.4710     0.3210    -0.3280 c          1 LB8       0.648700
     25 O           -1.9790    -0.5880     0.3120 o          1 LB8      -0.552100
     26 C8          -3.9300     0.4440    -0.5260 cd         1 LB8      -0.223600
     27 C16         -4.9360     0.0660     0.3410 cc         1 LB8      -0.203300
     28 C17         -4.8310    -0.3980     1.7580 c3         1 LB8       0.395300
     29 F2          -4.6760    -1.7220     1.8410 f          1 LB8      -0.097333
     30 F1          -3.7920     0.1720     2.3650 f          1 LB8      -0.097333
     31 F           -5.9180    -0.0820     2.4650 f          1 LB8      -0.097333
     32 N2          -6.1030     0.2800    -0.3030 na         1 LB8       0.260000
     33 C9          -4.6150     0.8860    -1.6710 cd         1 LB8       0.253900
     34 C10         -7.4340     0.0190     0.1290 ca         1 LB8      -0.011200
     35 C15         -7.8230    -1.2820     0.4070 ca         1 LB8      -0.084500
     36 C14         -9.1280    -1.5230     0.8120 ca         1 LB8      -0.101500
     37 C13        -10.0290    -0.4720     0.9230 ca         1 LB8      -0.093000
     38 C12         -9.6280     0.8240     0.6270 ca         1 LB8      -0.101500
     39 C11         -8.3240     1.0770     0.2300 ca         1 LB8      -0.084500
     40 H1           2.0150     3.7850    -0.4360 ha         1 LB8       0.115000
     41 H2           4.1000    -0.0740     0.0500 hn         1 LB8       0.323500
     42 H3           5.0960    -4.3280    -1.4590 hn         1 LB8       0.314000
     43 H4           4.3220    -5.1320    -0.1520 hn         1 LB8       0.314000
     44 H5           0.0420    -0.6410    -1.3200 ha         1 LB8       0.156000
     45 H6           4.9290    -2.1090    -1.8540 h1         1 LB8       0.072700
     46 H7           6.0260    -1.2540     0.8540 hc         1 LB8       0.055200
     47 H8           6.7900    -2.4110    -0.2150 hc         1 LB8       0.055200
     48 H9           6.9550    -0.6930    -2.0090 hc         1 LB8       0.042200
     49 H10          6.2540     0.5120    -0.9510 hc         1 LB8       0.042200
     50 H11          8.8480    -0.9830    -0.4020 hc         1 LB8       0.045700
     51 H12          7.5640     1.3920     1.0070 hc         1 LB8       0.038200
     52 H13          7.7700    -0.2120     1.6850 hc         1 LB8       0.038200
     53 H14          9.5340     1.3240     2.5020 hc         1 LB8       0.039200
     54 H15         10.2170    -0.0080     1.5890 hc         1 LB8       0.039200
     55 H16          9.7450     2.8190     0.5380 hc         1 LB8       0.038700
     56 H17         11.3010     2.1020     0.9110 hc         1 LB8       0.038700
     57 H18         10.8110     2.0270    -1.5440 hc         1 LB8       0.039200
     58 H19         10.9960     0.4190    -0.8720 hc         1 LB8       0.039200
     59 H20          9.0250     0.4940    -2.3650 hc         1 LB8       0.038200
     60 H21          8.3510     1.8310    -1.4510 hc         1 LB8       0.038200
     61 H22          3.4770     1.8570    -0.7560 ha         1 LB8       0.114000
     62 H23         -1.2150     4.1660    -1.3510 hc         1 LB8       0.045033
     63 H24         -1.4430     3.6990     0.3290 hc         1 LB8       0.045033
     64 H25         -0.1020     4.7490    -0.1250 hc         1 LB8       0.045033
     65 H26         -2.2640     2.0810    -1.3170 hn         1 LB8       0.156000
     66 H27         -4.2010     1.2510    -2.5990 h4         1 LB8       0.050100
     67 H28         -7.1230    -2.1000     0.2970 ha         1 LB8       0.133500
     68 H29         -9.4400    -2.5340     1.0320 ha         1 LB8       0.124000
     69 H30        -11.0470    -0.6660     1.2360 ha         1 LB8       0.121000
     70 H31        -10.3290     1.6430     0.7130 ha         1 LB8       0.124000
     71 H32         -7.9990     2.0840     0.0070 ha         1 LB8       0.133500
     72 C18          2.6890    -0.7550    -1.2450 c          1 LB8       0.616700
@<TRIPOS>BOND
     1     1    32 1   
     2     1    33 2   
     3     2    20 ar  
     4     2    21 ar  
     5     2    40 1   
     6     3    72 2   
     7     4     9 1   
     8     4    41 1   
     9     4    72 1   
    10     5     7 ar  
    11     5    20 ar  
    12     5    72 1   
    13     6    10 1   
    14     6    42 1   
    15     6    43 1   
    16     7     8 ar  
    17     7    44 1   
    18     8    21 ar  
    19     8    23 1   
    20     9    10 1   
    21     9    12 1   
    22     9    45 1   
    23    10    11 2   
    24    12    13 1   
    25    12    46 1   
    26    12    47 1   
    27    13    14 1   
    28    13    48 1   
    29    13    49 1   
    30    14    15 1   
    31    14    19 1   
    32    14    50 1   
    33    15    16 1   
    34    15    51 1   
    35    15    52 1   
    36    16    17 1   
    37    16    53 1   
    38    16    54 1   
    39    17    18 1   
    40    17    55 1   
    41    17    56 1   
    42    18    19 1   
    43    18    57 1   
    44    18    58 1   
    45    19    59 1   
    46    19    60 1   
    47    20    61 1   
    48    21    22 1   
    49    22    62 1   
    50    22    63 1   
    51    22    64 1   
    52    23    24 1   
    53    23    65 1   
    54    24    25 2   
    55    24    26 1   
    56    26    27 2   
    57    26    33 1   
    58    27    28 1   
    59    27    32 1   
    60    28    29 1   
    61    28    30 1   
    62    28    31 1   
    63    32    34 1   
    64    33    66 1   
    65    34    35 ar  
    66    34    39 ar  
    67    35    36 ar  
    68    35    67 1   
    69    36    37 ar  
    70    36    68 1   
    71    37    38 ar  
    72    37    69 1   
    73    38    39 ar  
    74    38    70 1   
    75    39    71 1   
@<TRIPOS>SUBSTRUCTURE
     1 LB8         1 TEMP              0 ****  ****    0 ROOT
