@<TRIPOS>MOLECULE
LB8
   72    75     1     0     0
SMALL
No Charge or Current Charge


@<TRIPOS>ATOM
      1 N1          -5.2060     2.0990    -0.5200 nc         1 LB8      -0.483800
      2 C2           1.5330     2.7660     2.8300 ca         1 LB8      -0.104000
      3 O2           2.9380    -1.5450     1.1190 o          1 LB8      -0.596100
      4 N3           4.4330    -0.3580     2.3500 ns         1 LB8      -0.482900
      5 C4           2.1880     0.5790     1.9550 ca         1 LB8      -0.130600
      6 N4           7.2810    -2.3180     3.7530 nt         1 LB8      -0.603000
      7 C5           0.9000     0.4530     1.3860 ca         1 LB8      -0.051000
      8 C6          -0.0750     1.4670     1.5380 ca         1 LB8      -0.042000
      9 C19          5.5710    -1.3040     2.2670 c3         1 LB8       0.031700
     10 C28          6.2880    -1.4040     3.6490 c          1 LB8       0.592100
     11 O1           6.0080    -0.7070     4.6130 o          1 LB8      -0.595100
     12 C20          6.5550    -0.9220     1.1250 c3         1 LB8      -0.086400
     13 C21          5.9200    -0.8850    -0.2890 c3         1 LB8      -0.071400
     14 C22          6.9190    -0.6700    -1.4670 c6         1 LB8      -0.061700
     15 C27          7.6570     0.7000    -1.3880 c6         1 LB8      -0.071400
     16 C26          8.6230     0.9000    -2.5830 c6         1 LB8      -0.072900
     17 C25          7.8860     0.7520    -3.9350 c6         1 LB8      -0.074400
     18 C24          7.1610    -0.6120    -4.0250 c6         1 LB8      -0.072900
     19 C23          6.1910    -0.8090    -2.8350 c6         1 LB8      -0.071400
     20 C3           2.4920     1.7530     2.6830 ca         1 LB8      -0.098000
     21 C1           0.2530     2.6360     2.2620 ca         1 LB8      -0.089300
     22 C           -0.7610     3.7630     2.4460 c3         1 LB8      -0.051800
     23 N           -1.3800     1.3690     0.9700 ns         1 LB8      -0.153000
     24 C7          -2.0750     0.3160     0.3880 c          1 LB8       0.648700
     25 O           -1.6380    -0.8230     0.2960 o          1 LB8      -0.552100
     26 C8          -3.4250     0.7250    -0.1000 cd         1 LB8      -0.223600
     27 C16         -4.3580    -0.0870    -0.7220 cc         1 LB8      -0.203300
     28 C17         -4.3120    -1.5650    -1.0940 c3         1 LB8       0.395300
     29 F2          -3.2700    -1.8300    -1.9130 f          1 LB8      -0.097333
     30 F1          -4.1690    -2.3390     0.0050 f          1 LB8      -0.097333
     31 F           -5.4190    -2.0040    -1.7320 f          1 LB8      -0.097333
     32 N2          -5.4050     0.8110    -0.9440 na         1 LB8       0.260000
     33 C9          -3.9940     2.0220    -0.0130 cd         1 LB8       0.253900
     34 C10         -6.6250     0.4880    -1.5350 ca         1 LB8      -0.011200
     35 C15         -6.8100     0.6670    -2.9200 ca         1 LB8      -0.084500
     36 C14         -8.0390     0.3340    -3.5170 ca         1 LB8      -0.101500
     37 C13         -9.0870    -0.1770    -2.7310 ca         1 LB8      -0.093000
     38 C12         -8.9070    -0.3550    -1.3490 ca         1 LB8      -0.101500
     39 C11         -7.6790    -0.0220    -0.7500 ca         1 LB8      -0.084500
     40 H1           1.7920     3.6610     3.3910 ha         1 LB8       0.115000
     41 H2           4.5540     0.4790     2.9050 hn         1 LB8       0.323500
     42 H3           7.5200    -2.9020     2.9650 hn         1 LB8       0.314000
     43 H4           7.7730    -2.4130     4.6290 hn         1 LB8       0.314000
     44 H5           0.6760    -0.4410     0.8140 ha         1 LB8       0.156000
     45 H6           5.1790    -2.3080     2.0590 h1         1 LB8       0.072700
     46 H7           6.9890     0.0580     1.3560 hc         1 LB8       0.055200
     47 H8           7.3850    -1.6380     1.1090 hc         1 LB8       0.055200
     48 H9           5.3880    -1.8320    -0.4430 hc         1 LB8       0.042200
     49 H10          5.1570    -0.0980    -0.3170 hc         1 LB8       0.042200
     50 H11          7.6660    -1.4730    -1.3940 hc         1 LB8       0.045700
     51 H12          6.9230     1.5180    -1.3680 hc         1 LB8       0.038200
     52 H13          8.2320     0.7730    -0.4560 hc         1 LB8       0.038200
     53 H14          9.0910     1.8910    -2.5210 hc         1 LB8       0.039200
     54 H15          9.4380     0.1660    -2.5250 hc         1 LB8       0.039200
     55 H16          7.1580     1.5670    -4.0520 hc         1 LB8       0.038700
     56 H17          8.6010     0.8510    -4.7630 hc         1 LB8       0.038700
     57 H18          6.6080    -0.6780    -4.9720 hc         1 LB8       0.039200
     58 H19          7.9010    -1.4250    -4.0380 hc         1 LB8       0.039200
     59 H20          5.7200    -1.7980    -2.9100 hc         1 LB8       0.038200
     60 H21          5.3770    -0.0720    -2.9000 hc         1 LB8       0.038200
     61 H22          3.4670     1.9020     3.1380 ha         1 LB8       0.114000
     62 H23         -1.0520     4.1930     1.4800 hc         1 LB8       0.045033
     63 H24         -1.6690     3.4010     2.9440 hc         1 LB8       0.045033
     64 H25         -0.3580     4.5790     3.0580 hc         1 LB8       0.045033
     65 H26         -1.8950     2.2380     0.9950 hn         1 LB8       0.156000
     66 H27         -3.5550     2.9160     0.4130 h4         1 LB8       0.050100
     67 H28         -6.0020     1.0620    -3.5310 ha         1 LB8       0.133500
     68 H29         -8.1790     0.4720    -4.5870 ha         1 LB8       0.124000
     69 H30        -10.0380    -0.4350    -3.1940 ha         1 LB8       0.121000
     70 H31         -9.7180    -0.7500    -0.7410 ha         1 LB8       0.124000
     71 H32         -7.5430    -0.1620     0.3200 ha         1 LB8       0.133500
     72 C18          3.1980    -0.5350     1.7610 c          1 LB8       0.616700
@<TRIPOS>BOND
     1     1    32 1   
     2     1    33 2   
     3     2    20 ar  
     4     2    21 ar  
     5     2    40 1   
     6     3    72 2   
     7     4     9 1   
     8     4    41 1   
     9     4    72 1   
    10     5     7 ar  
    11     5    20 ar  
    12     5    72 1   
    13     6    10 1   
    14     6    42 1   
    15     6    43 1   
    16     7     8 ar  
    17     7    44 1   
    18     8    21 ar  
    19     8    23 1   
    20     9    10 1   
    21     9    12 1   
    22     9    45 1   
    23    10    11 2   
    24    12    13 1   
    25    12    46 1   
    26    12    47 1   
    27    13    14 1   
    28    13    48 1   
    29    13    49 1   
    30    14    15 1   
    31    14    19 1   
    32    14    50 1   
    33    15    16 1   
    34    15    51 1   
    35    15    52 1   
    36    16    17 1   
    37    16    53 1   
    38    16    54 1   
    39    17    18 1   
    40    17    55 1   
    41    17    56 1   
    42    18    19 1   
    43    18    57 1   
    44    18    58 1   
    45    19    59 1   
    46    19    60 1   
    47    20    61 1   
    48    21    22 1   
    49    22    62 1   
    50    22    63 1   
    51    22    64 1   
    52    23    24 1   
    53    23    65 1   
    54    24    25 2   
    55    24    26 1   
    56    26    27 2   
    57    26    33 1   
    58    27    28 1   
    59    27    32 1   
    60    28    29 1   
    61    28    30 1   
    62    28    31 1   
    63    32    34 1   
    64    33    66 1   
    65    34    35 ar  
    66    34    39 ar  
    67    35    36 ar  
    68    35    67 1   
    69    36    37 ar  
    70    36    68 1   
    71    37    38 ar  
    72    37    69 1   
    73    38    39 ar  
    74    38    70 1   
    75    39    71 1   
@<TRIPOS>SUBSTRUCTURE
     1 LB8         1 TEMP              0 ****  ****    0 ROOT
