@<TRIPOS>MOLECULE
LB9
   23    22     1     0     0
SMALL
No Charge or Current Charge


@<TRIPOS>ATOM
      1 C1           5.1410    11.5850    13.9500 c3         1 LB9       0.101100
      2 C2           5.7330    10.7550    15.1010 c3         1 LB9      -0.105900
      3 C3           4.9100    10.8720    16.4030 c3         1 LB9      -0.066400
      4 C4           5.4990    10.0410    17.5650 c3         1 LB9      -0.105900
      5 NE2          5.9750    11.4400    12.7010 nz         1 LB9      -0.976000
      6 C5           4.6740    10.1630    18.8560 c3         1 LB9       0.101100
      7 N1           5.2840     9.3380    19.9610 nz         1 LB9      -0.976000
      8 H1C1         5.1030    12.6400    14.2430 hx         1 LB9       0.114200
      9 H1C2         4.1180    11.2480    13.7460 hx         1 LB9       0.114200
     10 H2C1         5.7830     9.7010    14.7980 hc         1 LB9       0.073450
     11 H2C2         6.7620    11.0850    15.2920 hc         1 LB9       0.073450
     12 H3C1         4.8580    11.9270    16.7030 hc         1 LB9       0.072200
     13 H3C2         3.8800    10.5450    16.2100 hc         1 LB9       0.072200
     14 H4C1         5.5480     8.9860    17.2660 hc         1 LB9       0.073450
     15 H4C2         6.5270    10.3700    17.7600 hc         1 LB9       0.073450
     16 HE21         5.6090    11.9840    11.9030 hn         1 LB9       0.522333
     17 HE22         6.9500    11.7570    12.8190 hn         1 LB9       0.522333
     18 H11          6.0390    10.4690    12.3590 hn         1 LB9       0.522333
     19 H5C1         4.6340    11.2150    19.1660 hx         1 LB9       0.114200
     20 H5C2         3.6490     9.8230    18.6690 hx         1 LB9       0.114200
     21 H1N1         4.7570     9.3940    20.8480 hn         1 LB9       0.522333
     22 H1N2         5.3360     8.3300    19.7410 hn         1 LB9       0.522333
     23 H16          6.2480     9.6190    20.2010 hn         1 LB9       0.522333
@<TRIPOS>BOND
     1     1     2 1   
     2     1     5 1   
     3     1     8 1   
     4     1     9 1   
     5     2     3 1   
     6     2    10 1   
     7     2    11 1   
     8     3     4 1   
     9     3    12 1   
    10     3    13 1   
    11     4     6 1   
    12     4    14 1   
    13     4    15 1   
    14     5    16 1   
    15     5    17 1   
    16     5    18 1   
    17     6     7 1   
    18     6    19 1   
    19     6    20 1   
    20     7    21 1   
    21     7    22 1   
    22     7    23 1   
@<TRIPOS>SUBSTRUCTURE
     1 LB9         1 TEMP              0 ****  ****    0 ROOT
