@<TRIPOS>MOLECULE
LB9
   23    22     1     0     0
SMALL
bcc


@<TRIPOS>ATOM
      1 C1           5.1390    11.5470    14.0050 c3         1 LB9       0.129300
      2 C2           5.7360    10.7070    15.1150 c3         1 LB9      -0.105900
      3 C3           4.9140    10.8280    16.3910 c3         1 LB9      -0.066400
      4 C4           5.5080    10.0050    17.5260 c3         1 LB9      -0.105900
      5 NE2          5.9690    11.4750    12.7700 nz         1 LB9      -0.838600
      6 C5           4.7020    10.1810    18.7970 c3         1 LB9       0.129300
      7 N1           5.2790     9.3910    19.9190 nz         1 LB9      -0.838600
      8 H1C1         5.0840    12.5980    14.2820 hx         1 LB9       0.114200
      9 H1C2         4.1410    11.2080    13.7330 hx         1 LB9       0.114200
     10 H2C1         5.7840     9.6610    14.8000 hc         1 LB9       0.073450
     11 H2C2         6.7630    11.0310    15.3070 hc         1 LB9       0.073450
     12 H3C1         4.8610    11.8780    16.6910 hc         1 LB9       0.072200
     13 H3C2         3.8870    10.5040    16.2010 hc         1 LB9       0.072200
     14 H4C1         5.5310     8.9480    17.2460 hc         1 LB9       0.073450
     15 H4C2         6.5430    10.3130    17.7020 hc         1 LB9       0.073450
     16 HE21         5.5700    12.0340    12.0150 hn         1 LB9       0.467133
     17 HE22         6.9160    11.8230    12.9280 hn         1 LB9       0.467133
     18 H11          6.0550    10.5200    12.4210 hn         1 LB9       0.467133
     19 H5C1         4.6880    11.2200    19.1220 hx         1 LB9       0.114200
     20 H5C2         3.6740     9.8440    18.6740 hx         1 LB9       0.114200
     21 H1N1         4.7600     9.5370    20.7850 hn         1 LB9       0.467133
     22 H1N2         5.2650     8.3880    19.7270 hn         1 LB9       0.467133
     23 H16          6.2490     9.6480    20.1070 hn         1 LB9       0.467133
@<TRIPOS>BOND
     1     1     2 1   
     2     1     5 1   
     3     1     8 1   
     4     1     9 1   
     5     2     3 1   
     6     2    10 1   
     7     2    11 1   
     8     3     4 1   
     9     3    12 1   
    10     3    13 1   
    11     4     6 1   
    12     4    14 1   
    13     4    15 1   
    14     5    16 1   
    15     5    17 1   
    16     5    18 1   
    17     6     7 1   
    18     6    19 1   
    19     6    20 1   
    20     7    21 1   
    21     7    22 1   
    22     7    23 1   
@<TRIPOS>SUBSTRUCTURE
     1 LB9         1 TEMP              0 ****  ****    0 ROOT
