@<TRIPOS>MOLECULE
LBA
   64    69     1     0     0
SMALL
bcc


@<TRIPOS>ATOM
      1 C18          3.6270     1.7470    -0.0310 ca         1 LBA       0.134600
      2 C23         -1.1830     1.2550     0.0830 c3         1 LBA       0.105900
      3 O19          2.3820     2.2470    -0.0280 os         1 LBA      -0.309400
      4 C20          1.2880     1.3620     0.1080 c3         1 LBA       0.105900
      5 C21          0.0150     2.1920     0.0610 c3         1 LBA       0.145100
      6 O22         -0.0370     3.1560     1.0790 oh         1 LBA      -0.561800
      7 C25         -3.5480     1.4490    -0.0430 ca         1 LBA       0.134600
      8 H4          -1.0960     0.5210    -0.7250 h1         1 LBA       0.036700
      9 H5          -1.2170     0.7050     1.0320 h1         1 LBA       0.036700
     10 H6           1.2810     0.6260    -0.7040 h1         1 LBA       0.036700
     11 H7           1.3480     0.8120     1.0560 h1         1 LBA       0.036700
     12 H8           0.0010     2.7480    -0.8820 h1         1 LBA       0.101700
     13 H9          -0.0210     2.7120     1.9340 ho         1 LBA       0.398000
     14 C1           4.6650     2.6720    -0.1840 ca         1 LBA      -0.195500
     15 C2           5.9760     2.2500    -0.2060 ca         1 LBA      -0.076250
     16 C3           6.3010     0.8950    -0.0740 ca         1 LBA      -0.115900
     17 C4           5.2600    -0.0150     0.0810 ca         1 LBA      -0.076250
     18 C5           3.9360     0.3960     0.1040 ca         1 LBA      -0.195500
     19 C6          -4.6570     2.2900    -0.1810 ca         1 LBA      -0.195500
     20 C7          -5.9310     1.7680    -0.1590 ca         1 LBA      -0.076250
     21 C8          -6.1480     0.3950     0.0020 ca         1 LBA      -0.115900
     22 C9          -5.0370    -0.4310     0.1390 ca         1 LBA      -0.076250
     23 C10         -3.7470     0.0800     0.1190 ca         1 LBA      -0.195500
     24 C24          7.7000     0.4860    -0.1070 cc         1 LBA       0.426400
     25 C22         -7.5130    -0.1180     0.0130 cc         1 LBA       0.426400
     26 N2           8.1070    -0.8000     0.0800 na         1 LBA      -0.264300
     27 C13          9.4730    -0.8210    -0.0170 ca         1 LBA      -0.085200
     28 C14          9.8290     0.5140    -0.2680 ca         1 LBA       0.049400
     29 N1           8.7070     1.2990    -0.3170 nd         1 LBA      -0.585100
     30 N4          -7.8200    -1.4200     0.2790 na         1 LBA      -0.270300
     31 C16         -9.1800    -1.5470     0.2040 ca         1 LBA      -0.082200
     32 C17         -9.6400    -0.2600    -0.1180 ca         1 LBA       0.045400
     33 N3          -8.5780     0.6030    -0.2290 nd         1 LBA      -0.570100
     34 C11        -11.0050    -0.0290    -0.2790 ca         1 LBA      -0.047000
     35 C12        -11.8870    -1.0860    -0.1110 ca         1 LBA      -0.163600
     36 C15        -11.3950    -2.3640     0.2160 ca         1 LBA      -0.062000
     37 C19        -10.0450    -2.6200     0.3780 ca         1 LBA      -0.193000
     38 C26         11.1760     0.8450    -0.4230 ca         1 LBA      -0.118000
     39 C27         12.1090    -0.1700    -0.3180 ca         1 LBA      -0.114000
     40 C28         11.7450    -1.5060    -0.0620 ca         1 LBA      -0.111600
     41 C29         10.4060    -1.8410     0.0900 ca         1 LBA      -0.125000
     42 C30         12.8140    -2.5850     0.0490 c          1 LBA       0.922200
     43 O3          13.9970    -2.2210    -0.1010 o          1 LBA      -0.825800
     44 O4          12.4190    -3.7440     0.2820 o          1 LBA      -0.825800
     45 H1           4.4310     3.7240    -0.2860 ha         1 LBA       0.135500
     46 H2           6.7670     2.9780    -0.3250 ha         1 LBA       0.141500
     47 H3           5.4520    -1.0750     0.1840 ha         1 LBA       0.141500
     48 H10          3.1660    -0.3540     0.2230 ha         1 LBA       0.135500
     49 H11         -4.5060     3.3550    -0.3030 ha         1 LBA       0.135500
     50 H12         -6.7790     2.4320    -0.2660 ha         1 LBA       0.141500
     51 H13         -5.1470    -1.5020     0.2560 ha         1 LBA       0.141500
     52 H14         -2.9190    -0.6060     0.2240 ha         1 LBA       0.135500
     53 H15          7.5200    -1.5970     0.2640 hn         1 LBA       0.292700
     54 H16         -7.1740    -2.1580     0.5080 hn         1 LBA       0.287700
     55 H17        -11.3710     0.9570    -0.5330 ha         1 LBA       0.162000
     56 H18        -12.1020    -3.1710     0.3440 ha         1 LBA       0.147000
     57 H19         -9.6850    -3.6100     0.6290 ha         1 LBA       0.111000
     58 H20         11.4780     1.8660    -0.6200 ha         1 LBA       0.122000
     59 H21         13.1590     0.0640    -0.4360 ha         1 LBA       0.148000
     60 H22         10.1110    -2.8640     0.2870 ha         1 LBA       0.151000
     61 C31        -13.3840    -0.8650    -0.2830 c          1 LBA       0.925200
     62 O2         -14.1220    -1.8540    -0.1080 o          1 LBA      -0.828300
     63 O1         -13.7490     0.2880    -0.5860 o          1 LBA      -0.828300
     64 O24         -2.3450     2.0440    -0.0800 os         1 LBA      -0.309400
@<TRIPOS>BOND
     1     1     3 1   
     2     1    14 ar  
     3     1    18 ar  
     4     2     5 1   
     5     2     8 1   
     6     2     9 1   
     7     2    64 1   
     8     3     4 1   
     9     4     5 1   
    10     4    10 1   
    11     4    11 1   
    12     5     6 1   
    13     5    12 1   
    14     6    13 1   
    15     7    19 ar  
    16     7    23 ar  
    17     7    64 1   
    18    14    15 ar  
    19    14    45 1   
    20    15    16 ar  
    21    15    46 1   
    22    16    17 ar  
    23    16    24 1   
    24    17    18 ar  
    25    17    47 1   
    26    18    48 1   
    27    19    20 ar  
    28    19    49 1   
    29    20    21 ar  
    30    20    50 1   
    31    21    22 ar  
    32    21    25 1   
    33    22    23 ar  
    34    22    51 1   
    35    23    52 1   
    36    24    26 1   
    37    24    29 2   
    38    25    30 1   
    39    25    33 2   
    40    26    27 1   
    41    26    53 1   
    42    27    28 ar  
    43    27    41 ar  
    44    28    29 1   
    45    28    38 ar  
    46    30    31 1   
    47    30    54 1   
    48    31    32 ar  
    49    31    37 ar  
    50    32    33 1   
    51    32    34 ar  
    52    34    35 ar  
    53    34    55 1   
    54    35    36 ar  
    55    35    61 1   
    56    36    37 ar  
    57    36    56 1   
    58    37    57 1   
    59    38    39 ar  
    60    38    58 1   
    61    39    40 ar  
    62    39    59 1   
    63    40    41 ar  
    64    40    42 1   
    65    41    60 1   
    66    42    43 1   
    67    42    44 1   
    68    61    62 1   
    69    61    63 1   
@<TRIPOS>SUBSTRUCTURE
     1 LBA         1 TEMP              0 ****  ****    0 ROOT
