@<TRIPOS>MOLECULE
LBA
   64    69     1     0     0
SMALL
No Charge or Current Charge


@<TRIPOS>ATOM
      1 C18          3.7570     1.7440    -0.0930 ca         1 LBA       0.134600
      2 C23         -1.2280     1.2060     0.1160 c3         1 LBA       0.129100
      3 O19          2.4520     2.1940    -0.0950 os         1 LBA      -0.332600
      4 C20          1.3330     1.3050     0.0950 c3         1 LBA       0.129100
      5 C21          0.0180     2.1280     0.0280 c3         1 LBA       0.168300
      6 O22         -0.0120     3.1260     1.0770 oh         1 LBA      -0.624000
      7 C25         -3.6810     1.4560    -0.0340 ca         1 LBA       0.134600
      8 H4          -1.1650     0.4450    -0.6730 h1         1 LBA       0.036700
      9 H5          -1.2400     0.6950     1.0870 h1         1 LBA       0.036700
     10 H6           1.3170     0.5410    -0.6930 h1         1 LBA       0.036700
     11 H7           1.4000     0.7980     1.0670 h1         1 LBA       0.036700
     12 H8          -0.0090     2.6190    -0.9550 h1         1 LBA       0.101700
     13 H9           0.0120     2.6510     1.9350 ho         1 LBA       0.437000
     14 C1           4.7760     2.6860    -0.2870 ca         1 LBA      -0.177500
     15 C2           6.1240     2.2890    -0.2960 ca         1 LBA      -0.058250
     16 C3           6.4770     0.9340    -0.1100 ca         1 LBA      -0.115900
     17 C4           5.4440    -0.0120     0.0850 ca         1 LBA      -0.058250
     18 C5           4.0950     0.3880     0.0930 ca         1 LBA      -0.177500
     19 C6          -4.7730     2.3170    -0.2100 ca         1 LBA      -0.177500
     20 C7          -6.0860     1.8160    -0.1980 ca         1 LBA      -0.058250
     21 C8          -6.3300     0.4380    -0.0090 ca         1 LBA      -0.115900
     22 C9          -5.2240    -0.4250     0.1690 ca         1 LBA      -0.058250
     23 C10         -3.9100     0.0780     0.1560 ca         1 LBA      -0.177500
     24 C24          7.8920     0.5250    -0.1210 cc         1 LBA       0.426400
     25 C22         -7.7090    -0.0800     0.0030 cc         1 LBA       0.426400
     26 N2           8.3300    -0.7880     0.0550 na         1 LBA      -0.314600
     27 C13          9.6880    -0.7720    -0.0170 ca         1 LBA      -0.085200
     28 C14         10.0510     0.5230    -0.2310 ca         1 LBA       0.049400
     29 N1           8.9410     1.3570    -0.3000 nd         1 LBA      -0.585100
     30 N4          -8.0400    -1.4230     0.1830 na         1 LBA      -0.320600
     31 C16         -9.3950    -1.5110     0.1330 ca         1 LBA      -0.082200
     32 C17         -9.8650    -0.2490    -0.0720 ca         1 LBA       0.045400
     33 N3          -8.8220     0.6690    -0.1580 nd         1 LBA      -0.570100
     34 C11        -11.2430    -0.0060    -0.1720 ca         1 LBA      -0.029000
     35 C12        -12.1450    -1.0990    -0.0550 ca         1 LBA      -0.163600
     36 C15        -11.6220    -2.4070     0.1600 ca         1 LBA      -0.044000
     37 C19        -10.2310    -2.6230     0.2560 ca         1 LBA      -0.175000
     38 C26         11.4020     0.8710    -0.3520 ca         1 LBA      -0.100000
     39 C27         12.3710    -0.1520    -0.2470 ca         1 LBA      -0.096000
     40 C28         11.9920    -1.5080    -0.0240 ca         1 LBA      -0.111600
     41 C29         10.6110    -1.8180     0.0940 ca         1 LBA      -0.107000
     42 C30         13.0450    -2.6020     0.0880 c          1 LBA       0.711600
     43 O3          14.2240    -2.2940    -0.0190 o          1 LBA      -0.720500
     44 O4          12.6770    -3.7530     0.2800 o          1 LBA      -0.720500
     45 H1           4.5210     3.7330    -0.4320 ha         1 LBA       0.117500
     46 H2           6.8950     3.0420    -0.4490 ha         1 LBA       0.123500
     47 H3           5.6740    -1.0640     0.2310 ha         1 LBA       0.123500
     48 H10          3.3310    -0.3680     0.2460 ha         1 LBA       0.117500
     49 H11         -4.6020     3.3800    -0.3570 ha         1 LBA       0.117500
     50 H12         -6.9150     2.5080    -0.3370 ha         1 LBA       0.123500
     51 H13         -5.3700    -1.4920     0.3170 ha         1 LBA       0.123500
     52 H14         -3.0880    -0.6170     0.2960 ha         1 LBA       0.117500
     53 H15          7.7400    -1.5950     0.2060 hn         1 LBA       0.343000
     54 H16         -7.3890    -2.1820     0.3230 hn         1 LBA       0.338000
     55 H17        -11.6010     1.0070    -0.3360 ha         1 LBA       0.144000
     56 H18        -12.2930    -3.2590     0.2520 ha         1 LBA       0.129000
     57 H19         -9.8270    -3.6190     0.4190 ha         1 LBA       0.093000
     58 H20         11.6960     1.9030    -0.5220 ha         1 LBA       0.104000
     59 H21         13.4220     0.1130    -0.3410 ha         1 LBA       0.130000
     60 H22         10.2710    -2.8370     0.2640 ha         1 LBA       0.133000
     61 C31        -13.6400    -0.8720    -0.1570 c          1 LBA       0.714600
     62 O2         -14.3870    -1.8340    -0.0520 o          1 LBA      -0.723000
     63 O1         -14.0460     0.2670    -0.3410 o          1 LBA      -0.723000
     64 O24         -2.4150     2.0050    -0.0560 os         1 LBA      -0.332600
@<TRIPOS>BOND
     1     1     3 1   
     2     1    14 ar  
     3     1    18 ar  
     4     2     5 1   
     5     2     8 1   
     6     2     9 1   
     7     2    64 1   
     8     3     4 1   
     9     4     5 1   
    10     4    10 1   
    11     4    11 1   
    12     5     6 1   
    13     5    12 1   
    14     6    13 1   
    15     7    19 ar  
    16     7    23 ar  
    17     7    64 1   
    18    14    15 ar  
    19    14    45 1   
    20    15    16 ar  
    21    15    46 1   
    22    16    17 ar  
    23    16    24 1   
    24    17    18 ar  
    25    17    47 1   
    26    18    48 1   
    27    19    20 ar  
    28    19    49 1   
    29    20    21 ar  
    30    20    50 1   
    31    21    22 ar  
    32    21    25 1   
    33    22    23 ar  
    34    22    51 1   
    35    23    52 1   
    36    24    26 1   
    37    24    29 2   
    38    25    30 1   
    39    25    33 2   
    40    26    27 1   
    41    26    53 1   
    42    27    28 ar  
    43    27    41 ar  
    44    28    29 1   
    45    28    38 ar  
    46    30    31 1   
    47    30    54 1   
    48    31    32 ar  
    49    31    37 ar  
    50    32    33 1   
    51    32    34 ar  
    52    34    35 ar  
    53    34    55 1   
    54    35    36 ar  
    55    35    61 1   
    56    36    37 ar  
    57    36    56 1   
    58    37    57 1   
    59    38    39 ar  
    60    38    58 1   
    61    39    40 ar  
    62    39    59 1   
    63    40    41 ar  
    64    40    42 1   
    65    41    60 1   
    66    42    43 1   
    67    42    44 1   
    68    61    62 1   
    69    61    63 1   
@<TRIPOS>SUBSTRUCTURE
     1 LBA         1 TEMP              0 ****  ****    0 ROOT
