@<TRIPOS>MOLECULE
LBB
   72    75     1     0     0
SMALL
No Charge or Current Charge


@<TRIPOS>ATOM
      1 N1          -5.7450     1.8720    -0.6690 nc         1 LBB      -0.508800
      2 C2           0.9970     2.7320     2.7530 ca         1 LBB      -0.106000
      3 O2           2.4840    -1.5690     1.0910 o          1 LBB      -0.597100
      4 N3           3.9400    -0.3600     2.3460 ns         1 LBB      -0.479900
      5 C4           1.6940     0.5500     1.9000 ca         1 LBB      -0.132600
      6 N4           6.7800    -2.2820     3.8170 nt         1 LBB      -0.604000
      7 C5           0.4190     0.4070     1.3060 ca         1 LBB      -0.051000
      8 C6          -0.5700     1.4100     1.4330 ca         1 LBB      -0.038000
      9 C19          5.0900    -1.2940     2.2910 c3         1 LBB       0.027700
     10 C28          5.7780    -1.3800     3.6880 c          1 LBB       0.590100
     11 O1           5.4680    -0.6840     4.6430 o          1 LBB      -0.596100
     12 C20          6.0940    -0.9050     1.1690 c3         1 LBB      -0.084400
     13 C21          5.4890    -0.8810    -0.2590 c3         1 LBB      -0.073400
     14 C22          6.5110    -0.6590    -1.4160 c6         1 LBB      -0.060700
     15 C27          7.2310     0.7190    -1.3270 c6         1 LBB      -0.071400
     16 C26          8.2210     0.9250    -2.5020 c6         1 LBB      -0.072900
     17 C25          7.5150     0.7640    -3.8690 c6         1 LBB      -0.074400
     18 C24          6.8070    -0.6080    -3.9690 c6         1 LBB      -0.072900
     19 C23          5.8140    -0.8110    -2.7980 c6         1 LBB      -0.071400
     20 C3           1.9700     1.7300     2.6280 ca         1 LBB      -0.098000
     21 C1          -0.2700     2.5850     2.1620 ca         1 LBB      -0.089300
     22 C           -1.3010     3.7000     2.3220 c3         1 LBB      -0.050800
     23 N           -1.8630     1.2960     0.8430 ns         1 LBB      -0.159000
     24 C7          -2.5120     0.2570     0.1890 c          1 LBB       0.658700
     25 O           -2.0420    -0.8590     0.0090 o          1 LBB      -0.584100
     26 C8          -3.8650     0.6320    -0.2760 cd         1 LBB      -0.293600
     27 C10         -4.7120    -0.2150    -0.9450 cc         1 LBB      -0.081000
     28 N2          -5.8220     0.5870    -1.1500 na         1 LBB       0.225000
     29 C9          -4.5360     1.8740    -0.1370 cd         1 LBB       0.263900
     30 C11         -6.9770     0.1490    -1.8010 ca         1 LBB      -0.006200
     31 C16         -7.8460    -0.7990    -1.2030 ca         1 LBB      -0.042300
     32 C17         -7.5720    -1.3690     0.1870 c3         1 LBB      -0.048800
     33 C15         -8.9940    -1.2220    -1.9050 ca         1 LBB      -0.109000
     34 C14         -9.2820    -0.7090    -3.1800 ca         1 LBB      -0.096000
     35 C13         -8.4250     0.2340    -3.7680 ca         1 LBB      -0.106000
     36 C12         -7.2780     0.6610    -3.0800 ca         1 LBB      -0.102000
     37 H1           1.2340     3.6320     3.3170 ha         1 LBB       0.113000
     38 H2           4.0410     0.4820     2.8980 hn         1 LBB       0.321500
     39 H3           7.0430    -2.8650     3.0360 hn         1 LBB       0.313500
     40 H4           7.2540    -2.3680     4.7030 hn         1 LBB       0.313500
     41 H5           0.2150    -0.4950     0.7390 ha         1 LBB       0.156000
     42 H6           4.7140    -2.3030     2.0800 h1         1 LBB       0.077700
     43 H7           6.5130     0.0800     1.4050 hc         1 LBB       0.053200
     44 H8           6.9320    -1.6130     1.1730 hc         1 LBB       0.053200
     45 H9           4.9700    -1.8340    -0.4200 hc         1 LBB       0.043700
     46 H10          4.7180    -0.1020    -0.3060 hc         1 LBB       0.043700
     47 H11          7.2650    -1.4540    -1.3230 hc         1 LBB       0.045700
     48 H12          6.4880     1.5290    -1.3260 hc         1 LBB       0.038450
     49 H13          7.7850     0.8020    -0.3830 hc         1 LBB       0.038450
     50 H14          8.6770     1.9220    -2.4340 hc         1 LBB       0.038950
     51 H15          9.0430     0.2000    -2.4230 hc         1 LBB       0.038950
     52 H16          6.7800     1.5700    -4.0040 hc         1 LBB       0.038700
     53 H17          8.2460     0.8670    -4.6820 hc         1 LBB       0.038700
     54 H18          6.2750    -0.6850    -4.9270 hc         1 LBB       0.038950
     55 H19          7.5560    -1.4130    -3.9620 hc         1 LBB       0.038950
     56 H20          5.3550    -1.8070    -2.8800 hc         1 LBB       0.038450
     57 H21          4.9940    -0.0840    -2.8840 hc         1 LBB       0.038450
     58 H22          2.9340     1.8920     3.1020 ha         1 LBB       0.112000
     59 H23         -1.5870     4.1160     1.3480 hc         1 LBB       0.044033
     60 H24         -2.2100     3.3320     2.8130 hc         1 LBB       0.044033
     61 H25         -0.9160     4.5280     2.9290 hc         1 LBB       0.044033
     62 H26         -2.4150     2.1400     0.9150 hn         1 LBB       0.153000
     63 H27         -4.6320    -1.2440    -1.2720 h4         1 LBB       0.178000
     64 H28         -4.1760     2.7780     0.3370 h4         1 LBB       0.037100
     65 H29         -7.3320    -0.5750     0.9040 hc         1 LBB       0.051700
     66 H30         -8.4400    -1.9090     0.5830 hc         1 LBB       0.051700
     67 H31         -6.7300    -2.0710     0.1660 hc         1 LBB       0.051700
     68 H32         -9.6680    -1.9500    -1.4600 ha         1 LBB       0.119000
     69 H33        -10.1710    -1.0410    -3.7120 ha         1 LBB       0.119000
     70 H34         -8.6490     0.6330    -4.7550 ha         1 LBB       0.123000
     71 H35         -6.6160     1.3910    -3.5420 ha         1 LBB       0.129000
     72 C18          2.7200    -0.5540     1.7320 c          1 LBB       0.616700
@<TRIPOS>BOND
     1     1    28 1   
     2     1    29 2   
     3     2    20 ar  
     4     2    21 ar  
     5     2    37 1   
     6     3    72 2   
     7     4     9 1   
     8     4    38 1   
     9     4    72 1   
    10     5     7 ar  
    11     5    20 ar  
    12     5    72 1   
    13     6    10 1   
    14     6    39 1   
    15     6    40 1   
    16     7     8 ar  
    17     7    41 1   
    18     8    21 ar  
    19     8    23 1   
    20     9    10 1   
    21     9    12 1   
    22     9    42 1   
    23    10    11 2   
    24    12    13 1   
    25    12    43 1   
    26    12    44 1   
    27    13    14 1   
    28    13    45 1   
    29    13    46 1   
    30    14    15 1   
    31    14    19 1   
    32    14    47 1   
    33    15    16 1   
    34    15    48 1   
    35    15    49 1   
    36    16    17 1   
    37    16    50 1   
    38    16    51 1   
    39    17    18 1   
    40    17    52 1   
    41    17    53 1   
    42    18    19 1   
    43    18    54 1   
    44    18    55 1   
    45    19    56 1   
    46    19    57 1   
    47    20    58 1   
    48    21    22 1   
    49    22    59 1   
    50    22    60 1   
    51    22    61 1   
    52    23    24 1   
    53    23    62 1   
    54    24    25 2   
    55    24    26 1   
    56    26    27 2   
    57    26    29 1   
    58    27    28 1   
    59    27    63 1   
    60    28    30 1   
    61    29    64 1   
    62    30    31 ar  
    63    30    36 ar  
    64    31    32 1   
    65    31    33 ar  
    66    32    65 1   
    67    32    66 1   
    68    32    67 1   
    69    33    34 ar  
    70    33    68 1   
    71    34    35 ar  
    72    34    69 1   
    73    35    36 ar  
    74    35    70 1   
    75    36    71 1   
@<TRIPOS>SUBSTRUCTURE
     1 LBB         1 TEMP              0 ****  ****    0 ROOT
