@<TRIPOS>MOLECULE
LBB
   72    75     1     0     0
SMALL
bcc


@<TRIPOS>ATOM
      1 N1          -6.4590     0.9210    -1.1440 nc         1 LBB      -0.508800
      2 C2           1.0780     2.8160    -0.3490 ca         1 LBB      -0.124000
      3 O2           1.8200    -1.7550    -1.4430 o          1 LBB      -0.597100
      4 N3           3.4710    -0.7050    -0.3340 ns         1 LBB      -0.546900
      5 C4           1.3870     0.4580    -0.6980 ca         1 LBB      -0.132600
      6 N4           4.1380    -4.1940     0.2210 nt         1 LBB      -0.671000
      7 C5           0.0100     0.3120    -0.8130 ca         1 LBB      -0.069000
      8 C6          -0.8310     1.4060    -0.6630 ca         1 LBB       0.054600
      9 C19          4.3360    -1.8550    -0.3450 c3         1 LBB       0.027700
     10 C28          3.7900    -2.9500     0.5750 c          1 LBB       0.657100
     11 O1           3.1340    -2.6860     1.5690 o          1 LBB      -0.596100
     12 C20          5.7440    -1.4530     0.1000 c3         1 LBB      -0.084400
     13 C21          6.4500    -0.5640    -0.9180 c3         1 LBB      -0.073400
     14 C22          7.8620    -0.1490    -0.5070 c6         1 LBB      -0.060700
     15 C27          7.8570     0.8310     0.6680 c6         1 LBB      -0.071400
     16 C26          9.2640     1.2830     1.0490 c6         1 LBB      -0.072900
     17 C25          9.9950     1.8880    -0.1440 c6         1 LBB      -0.074400
     18 C24         10.0170     0.9130    -1.3160 c6         1 LBB      -0.072900
     19 C23          8.6070     0.4660    -1.6920 c6         1 LBB      -0.071400
     20 C3           1.9210     1.7240    -0.4740 ca         1 LBB      -0.116000
     21 C1          -0.3040     2.6820    -0.4240 ca         1 LBB      -0.089300
     22 C           -1.2020     3.8690    -0.2550 c3         1 LBB      -0.050800
     23 N           -2.2240     1.2620    -0.7740 ns         1 LBB      -0.485100
     24 C7          -2.9630     0.3010    -0.1570 c          1 LBB       0.725700
     25 O           -2.4750    -0.5630     0.5530 o          1 LBB      -0.584100
     26 C8          -4.4080     0.3730    -0.3970 cd         1 LBB      -0.358900
     27 C10         -5.3390    -0.4280     0.2300 cc         1 LBB      -0.048300
     28 N2          -6.5400    -0.0630    -0.2400 na         1 LBB       0.174300
     29 C9          -5.1800     1.1970    -1.2450 cd         1 LBB       0.329200
     30 C11         -7.7920    -0.6380     0.0990 ca         1 LBB      -0.006200
     31 C16         -8.8060     0.1610     0.6310 ca         1 LBB      -0.042300
     32 C17         -8.6270     1.6280     0.8810 c3         1 LBB      -0.048800
     33 C15        -10.0060    -0.4710     0.9490 ca         1 LBB      -0.127000
     34 C14        -10.1860    -1.8340     0.7630 ca         1 LBB      -0.114000
     35 C13         -9.1570    -2.6070     0.2470 ca         1 LBB      -0.124000
     36 C12         -7.9570    -2.0030    -0.0920 ca         1 LBB      -0.120000
     37 H1           1.5030     3.7970    -0.1780 ha         1 LBB       0.131000
     38 H2           3.6800     0.0190     0.3350 hn         1 LBB       0.321500
     39 H3           4.6590    -4.3820    -0.6180 hn         1 LBB       0.313500
     40 H4           3.9010    -4.9810     0.8030 hn         1 LBB       0.313500
     41 H5          -0.4030    -0.6620    -1.0300 ha         1 LBB       0.174000
     42 H6           4.3930    -2.2430    -1.3670 h1         1 LBB       0.077700
     43 H7           5.6840    -0.9690     1.0800 hc         1 LBB       0.053200
     44 H8           6.3340    -2.3620     0.2450 hc         1 LBB       0.053200
     45 H9           6.4980    -1.1090    -1.8670 hc         1 LBB       0.043700
     46 H10          5.8580     0.3360    -1.1170 hc         1 LBB       0.043700
     47 H11          8.4090    -1.0520    -0.2010 hc         1 LBB       0.045700
     48 H12          7.2600     1.7070     0.3840 hc         1 LBB       0.038450
     49 H13          7.3630     0.3890     1.5360 hc         1 LBB       0.038450
     50 H14          9.2140     2.0020     1.8710 hc         1 LBB       0.038950
     51 H15          9.8320     0.4240     1.4230 hc         1 LBB       0.038950
     52 H16          9.4890     2.8110    -0.4480 hc         1 LBB       0.038700
     53 H17         11.0130     2.1700     0.1370 hc         1 LBB       0.038700
     54 H18         10.5110     1.3650    -2.1790 hc         1 LBB       0.038950
     55 H19         10.6120     0.0350    -1.0420 hc         1 LBB       0.038950
     56 H20          8.6480    -0.2510    -2.5170 hc         1 LBB       0.038450
     57 H21          8.0380     1.3290    -2.0590 hc         1 LBB       0.038450
     58 H22          2.9900     1.8820    -0.4200 ha         1 LBB       0.130000
     59 H23         -1.7150     4.1270    -1.1860 hc         1 LBB       0.044033
     60 H24         -1.9720     3.6850     0.4970 hc         1 LBB       0.044033
     61 H25         -0.6350     4.7450     0.0530 hc         1 LBB       0.044033
     62 H26         -2.7150     2.0030    -1.2490 hn         1 LBB       0.319500
     63 H27         -5.2270    -1.2000     0.9730 h4         1 LBB       0.196000
     64 H28         -4.8540     1.9650    -1.9320 h4         1 LBB       0.037100
     65 H29         -8.6650     2.2020    -0.0440 hc         1 LBB       0.051700
     66 H30         -9.4140     2.0000     1.5360 hc         1 LBB       0.051700
     67 H31         -7.6690     1.8450     1.3540 hc         1 LBB       0.051700
     68 H32        -10.8120     0.1190     1.3680 ha         1 LBB       0.137000
     69 H33        -11.1300    -2.2920     1.0300 ha         1 LBB       0.137000
     70 H34         -9.2860    -3.6710     0.1000 ha         1 LBB       0.141000
     71 H35         -7.1480    -2.5870    -0.5140 ha         1 LBB       0.147000
     72 C18          2.2320    -0.7630    -0.8590 c          1 LBB       0.683700
@<TRIPOS>BOND
     1     1    28 1   
     2     1    29 2   
     3     2    20 ar  
     4     2    21 ar  
     5     2    37 1   
     6     3    72 2   
     7     4     9 1   
     8     4    38 1   
     9     4    72 1   
    10     5     7 ar  
    11     5    20 ar  
    12     5    72 1   
    13     6    10 1   
    14     6    39 1   
    15     6    40 1   
    16     7     8 ar  
    17     7    41 1   
    18     8    21 ar  
    19     8    23 1   
    20     9    10 1   
    21     9    12 1   
    22     9    42 1   
    23    10    11 2   
    24    12    13 1   
    25    12    43 1   
    26    12    44 1   
    27    13    14 1   
    28    13    45 1   
    29    13    46 1   
    30    14    15 1   
    31    14    19 1   
    32    14    47 1   
    33    15    16 1   
    34    15    48 1   
    35    15    49 1   
    36    16    17 1   
    37    16    50 1   
    38    16    51 1   
    39    17    18 1   
    40    17    52 1   
    41    17    53 1   
    42    18    19 1   
    43    18    54 1   
    44    18    55 1   
    45    19    56 1   
    46    19    57 1   
    47    20    58 1   
    48    21    22 1   
    49    22    59 1   
    50    22    60 1   
    51    22    61 1   
    52    23    24 1   
    53    23    62 1   
    54    24    25 2   
    55    24    26 1   
    56    26    27 2   
    57    26    29 1   
    58    27    28 1   
    59    27    63 1   
    60    28    30 1   
    61    29    64 1   
    62    30    31 ar  
    63    30    36 ar  
    64    31    32 1   
    65    31    33 ar  
    66    32    65 1   
    67    32    66 1   
    68    32    67 1   
    69    33    34 ar  
    70    33    68 1   
    71    34    35 ar  
    72    34    69 1   
    73    35    36 ar  
    74    35    70 1   
    75    36    71 1   
@<TRIPOS>SUBSTRUCTURE
     1 LBB         1 TEMP              0 ****  ****    0 ROOT
