@<TRIPOS>MOLECULE
LBC
   31    32     1     0     0
SMALL
No Charge or Current Charge


@<TRIPOS>ATOM
      1 N1           7.3300     0.7690    21.3550 ns         1 LBC      -0.151000
      2 C4           6.9210     2.1560    19.3140 ca         1 LBC       0.333900
      3 C5           6.7390     0.9700    20.0720 ca         1 LBC      -0.082000
      4 C6           8.2760     1.4960    22.0660 c          1 LBC       0.603100
      5 C7           8.6260     0.9040    23.4380 c3         1 LBC      -0.109100
      6 C8           9.9180     0.0950    23.3630 ca         1 LBC      -0.088300
      7 C10         12.3520    -0.0300    23.5220 ca         1 LBC      -0.108000
      8 C13          9.8790    -1.2790    23.0480 ca         1 LBC      -0.077000
      9 C9          11.1610     0.7150    23.5990 ca         1 LBC      -0.073000
     10 N            6.3610     2.3570    18.0970 nb         1 LBC      -0.646000
     11 C12         11.0690    -2.0200    22.9720 ca         1 LBC       0.202000
     12 C1           5.9260    -0.0510    19.5290 ca         1 LBC      -0.082300
     13 C11         12.3060    -1.3990    23.2080 ca         1 LBC      -0.074000
     14 C            5.6720    -1.3590    20.2720 c3         1 LBC      -0.050800
     15 C2           5.3490     0.1660    18.2640 ca         1 LBC      -0.144000
     16 O            8.8220     2.5080    21.6430 o          1 LBC      -0.572100
     17 C3           5.5900     1.3720    17.5880 ca         1 LBC       0.316900
     18 I           10.9950    -4.1290    22.4830 i          1 LBC      -0.316000
     19 H1           6.9990    -0.0590    21.8330 hn         1 LBC       0.151000
     20 H2           7.5200     2.9850    19.6820 h4         1 LBC       0.046100
     21 H3           8.7460     1.7260    24.1540 hc         1 LBC       0.071200
     22 H4           7.8140     0.2480    23.7740 hc         1 LBC       0.071200
     23 H5          13.3090     0.4550    23.7050 ha         1 LBC       0.122000
     24 H6           8.9310    -1.7750    22.8610 ha         1 LBC       0.120000
     25 H7          11.2070     1.7760    23.8380 ha         1 LBC       0.125000
     26 H8          13.2230    -1.9790    23.1480 ha         1 LBC       0.130000
     27 H9           6.6130    -1.8830    20.4820 hc         1 LBC       0.046367
     28 H10          5.1650    -1.1780    21.2280 hc         1 LBC       0.046367
     29 H11          5.0410    -2.0410    19.6900 hc         1 LBC       0.046367
     30 H12          4.7170    -0.5880    17.8010 ha         1 LBC       0.121000
     31 H13          5.1510     1.5560    16.6080 h4         1 LBC       0.022100
@<TRIPOS>BOND
     1     1     3 1   
     2     1     4 1   
     3     1    19 1   
     4     2     3 ar  
     5     2    10 ar  
     6     2    20 1   
     7     3    12 ar  
     8     4     5 1   
     9     4    16 2   
    10     5     6 1   
    11     5    21 1   
    12     5    22 1   
    13     6     8 ar  
    14     6     9 ar  
    15     7     9 ar  
    16     7    13 ar  
    17     7    23 1   
    18     8    11 ar  
    19     8    24 1   
    20     9    25 1   
    21    10    17 ar  
    22    11    13 ar  
    23    11    18 1   
    24    12    14 1   
    25    12    15 ar  
    26    13    26 1   
    27    14    27 1   
    28    14    28 1   
    29    14    29 1   
    30    15    17 ar  
    31    15    30 1   
    32    17    31 1   
@<TRIPOS>SUBSTRUCTURE
     1 LBC         1 TEMP              0 ****  ****    0 ROOT
