@<TRIPOS>MOLECULE
LBC
   31    32     1     0     0
SMALL
abcg2


@<TRIPOS>ATOM
      1 N1           7.3390     0.3330    21.3360 ns         1 LBC      -0.151000
      2 C4           7.5870     1.4270    19.1590 ca         1 LBC       0.333900
      3 C5           6.8620     0.6270    20.0450 ca         1 LBC      -0.082000
      4 C6           8.1080     1.1240    22.1350 c          1 LBC       0.603100
      5 C7           8.5130     0.4820    23.4560 c3         1 LBC      -0.109100
      6 C8           9.9360    -0.0190    23.3630 ca         1 LBC      -0.088300
      7 C10         12.3070     0.3060    23.6910 ca         1 LBC      -0.108000
      8 C13         10.1990    -1.2520    22.7630 ca         1 LBC      -0.077000
      9 C9          10.9980     0.7550    23.8250 ca         1 LBC      -0.073000
     10 N            7.1720     1.7100    17.9240 nb         1 LBC      -0.646000
     11 C12         11.5110    -1.6850    22.6350 ca         1 LBC       0.202000
     12 C1           5.6420     0.0750    19.6260 ca         1 LBC      -0.082300
     13 C11         12.5780    -0.9200    23.0920 ca         1 LBC      -0.074000
     14 C            4.8170    -0.7930    20.5290 c3         1 LBC      -0.050800
     15 C2           5.2290     0.3750    18.3320 ca         1 LBC      -0.144000
     16 O            8.4840     2.2460    21.8250 o          1 LBC      -0.572100
     17 C3           6.0080     1.1900    17.5240 ca         1 LBC       0.316900
     18 I           11.8940    -3.5580    21.7220 i          1 LBC      -0.316000
     19 H1           7.0340    -0.5410    21.7370 hn         1 LBC       0.151000
     20 H2           8.5320     1.8490    19.4680 h4         1 LBC       0.046100
     21 H3           8.4350     1.2490    24.2260 hc         1 LBC       0.071200
     22 H4           7.8390    -0.3360    23.7120 hc         1 LBC       0.071200
     23 H5          13.1270     0.9110    24.0560 ha         1 LBC       0.122000
     24 H6           9.3800    -1.8600    22.4020 ha         1 LBC       0.120000
     25 H7          10.7990     1.7110    24.2920 ha         1 LBC       0.125000
     26 H8          13.5960    -1.2680    22.9890 ha         1 LBC       0.130000
     27 H9           5.3460    -1.7170    20.7850 hc         1 LBC       0.046367
     28 H10          4.5930    -0.2800    21.4670 hc         1 LBC       0.046367
     29 H11          3.8800    -1.0650    20.0470 hc         1 LBC       0.046367
     30 H12          4.2940    -0.0230    17.9590 ha         1 LBC       0.121000
     31 H13          5.6880     1.4300    16.5160 h4         1 LBC       0.022100
@<TRIPOS>BOND
     1     1     3 1   
     2     1     4 1   
     3     1    19 1   
     4     2     3 ar  
     5     2    10 ar  
     6     2    20 1   
     7     3    12 ar  
     8     4     5 1   
     9     4    16 2   
    10     5     6 1   
    11     5    21 1   
    12     5    22 1   
    13     6     8 ar  
    14     6     9 ar  
    15     7     9 ar  
    16     7    13 ar  
    17     7    23 1   
    18     8    11 ar  
    19     8    24 1   
    20     9    25 1   
    21    10    17 ar  
    22    11    13 ar  
    23    11    18 1   
    24    12    14 1   
    25    12    15 ar  
    26    13    26 1   
    27    14    27 1   
    28    14    28 1   
    29    14    29 1   
    30    15    17 ar  
    31    15    30 1   
    32    17    31 1   
@<TRIPOS>SUBSTRUCTURE
     1 LBC         1 TEMP              0 ****  ****    0 ROOT
