@<TRIPOS>MOLECULE
LBD
   54    57     1     0     0
SMALL
abcg2


@<TRIPOS>ATOM
      1 C01          3.0490    -3.3140    -1.4480 c3         1 LBD      -0.103100
      2 C02          2.6450    -2.9550    -0.0220 c6         1 LBD       0.240500
      3 C03          2.2940    -4.1720     0.8280 c6         1 LBD       0.146800
      4 C05         -0.0350    -3.8240     0.5430 c6         1 LBD       0.140800
      5 C06          0.2260    -2.6000    -0.3130 c6         1 LBD       0.226800
      6 C08          1.7400    -0.6830     0.0060 ca         1 LBD       0.438900
      7 C10          3.1760     1.0780     0.1200 ca         1 LBD       0.104000
      8 C11          4.4950     1.5770     0.2090 ca         1 LBD      -0.116000
      9 C12          4.7300     2.9270     0.2480 ca         1 LBD      -0.071000
     10 C13          3.6660     3.8440     0.2000 ca         1 LBD      -0.143000
     11 C14          2.3760     3.3830     0.1140 ca         1 LBD      -0.060000
     12 C15          2.1110     2.0030     0.0740 ca         1 LBD      -0.219000
     13 C16          0.8060     1.4010    -0.0130 ca         1 LBD       0.442900
     14 C18         -1.6090     1.8200    -0.0900 cc         1 LBD       0.237000
     15 C21         -3.6350     0.9430    -0.1330 cd         1 LBD       0.275300
     16 C22         -4.7890    -0.0240    -0.1560 c3         1 LBD      -0.073300
     17 C23         -4.6730    -0.9070    -1.4040 c3         1 LBD      -0.079100
     18 C24         -4.7200    -0.9140     1.0920 c3         1 LBD      -0.079100
     19 C25         -6.1260     0.7160    -0.1800 c3         1 LBD      -0.079100
     20 C26         -2.2630     0.6060    -0.1050 cd         1 LBD      -0.227000
     21 N04          1.0520    -4.7690     0.3820 n7         1 LBD      -0.857400
     22 N07          1.5210    -2.0220     0.0000 nh         1 LBD      -0.769300
     23 N09          2.9830    -0.2570     0.0810 nb         1 LBD      -0.292000
     24 N17         -0.2860     2.2050    -0.0540 nu         1 LBD      -0.928900
     25 N19         -2.5700     2.7650    -0.1120 na         1 LBD      -0.052200
     26 N20         -3.8030     2.2490    -0.1360 nc         1 LBD      -0.516800
     27 N27          0.6400     0.1080    -0.0490 nb         1 LBD      -0.306000
     28 H1           2.2470    -3.8120    -1.9910 hc         1 LBD       0.043367
     29 H2           3.3330    -2.4190    -2.0010 hc         1 LBD       0.043367
     30 H3           3.9100    -3.9840    -1.4390 hc         1 LBD       0.043367
     31 H4           3.4870    -2.4590     0.4570 h1         1 LBD       0.085700
     32 H5           3.1000    -4.9020     0.7430 h1         1 LBD       0.039200
     33 H6           2.2520    -3.8530     1.8820 h1         1 LBD       0.039200
     34 H7          -0.1710    -3.5030     1.5880 h1         1 LBD       0.039200
     35 H8          -0.9710    -4.2830     0.2200 h1         1 LBD       0.039200
     36 H9           0.1790    -2.8790    -1.3720 h1         1 LBD       0.061700
     37 H10         -0.5480    -1.8610    -0.1400 h1         1 LBD       0.061700
     38 H11          5.3100     0.8660     0.2450 ha         1 LBD       0.132000
     39 H12          5.7470     3.2920     0.3170 ha         1 LBD       0.115000
     40 H13          3.8610     4.9070     0.2310 ha         1 LBD       0.116000
     41 H14          1.5760     4.1120     0.0800 ha         1 LBD       0.096000
     42 H15         -3.7390    -1.4720    -1.4100 hc         1 LBD       0.036033
     43 H16         -5.4940    -1.6260    -1.4410 hc         1 LBD       0.036033
     44 H17         -4.7060    -0.3100    -2.3180 hc         1 LBD       0.036033
     45 H18         -4.7820    -0.3220     2.0070 hc         1 LBD       0.036033
     46 H19         -5.5450    -1.6290     1.0950 hc         1 LBD       0.036033
     47 H20         -3.7900    -1.4840     1.1260 hc         1 LBD       0.036033
     48 H21         -6.2200     1.3480    -1.0640 hc         1 LBD       0.036033
     49 H22         -6.9480    -0.0020    -0.1940 hc         1 LBD       0.036033
     50 H23         -6.2510     1.3510     0.6980 hc         1 LBD       0.036033
     51 H24         -1.8240    -0.3710    -0.0970 ha         1 LBD       0.162000
     52 H25          0.8610    -5.6040     0.9180 hn         1 LBD       0.413000
     53 H27         -0.1280     3.2000    -0.0360 hn         1 LBD       0.502000
     54 H28         -2.4460     3.7660    -0.1050 hn         1 LBD       0.365000
@<TRIPOS>BOND
     1     1     2 1   
     2     1    28 1   
     3     1    29 1   
     4     1    30 1   
     5     2     3 1   
     6     2    22 1   
     7     2    31 1   
     8     3    21 1   
     9     3    32 1   
    10     3    33 1   
    11     4     5 1   
    12     4    21 1   
    13     4    34 1   
    14     4    35 1   
    15     5    22 1   
    16     5    36 1   
    17     5    37 1   
    18     6    22 1   
    19     6    23 ar  
    20     6    27 ar  
    21     7     8 ar  
    22     7    12 ar  
    23     7    23 ar  
    24     8     9 ar  
    25     8    38 1   
    26     9    10 ar  
    27     9    39 1   
    28    10    11 ar  
    29    10    40 1   
    30    11    12 ar  
    31    11    41 1   
    32    12    13 ar  
    33    13    24 1   
    34    13    27 ar  
    35    14    20 2   
    36    14    24 1   
    37    14    25 1   
    38    15    16 1   
    39    15    20 1   
    40    15    26 2   
    41    16    17 1   
    42    16    18 1   
    43    16    19 1   
    44    17    42 1   
    45    17    43 1   
    46    17    44 1   
    47    18    45 1   
    48    18    46 1   
    49    18    47 1   
    50    19    48 1   
    51    19    49 1   
    52    19    50 1   
    53    20    51 1   
    54    21    52 1   
    55    24    53 1   
    56    25    26 1   
    57    25    54 1   
@<TRIPOS>SUBSTRUCTURE
     1 LBD         1 TEMP              0 ****  ****    0 ROOT
