@<TRIPOS>MOLECULE
LBD
   54    57     1     0     0
SMALL
No Charge or Current Charge


@<TRIPOS>ATOM
      1 C01          2.7320    -3.2460    -1.4070 c3         1 LBD      -0.103100
      2 C02          2.6440    -3.0360     0.1310 c6         1 LBD       0.240500
      3 C03          2.4600    -4.3990     0.8930 c6         1 LBD       0.146800
      4 C05          0.0670    -4.0000     1.1950 c6         1 LBD       0.140800
      5 C06          0.1640    -2.6300     0.4450 c6         1 LBD       0.226800
      6 C08          1.7630    -0.6430     0.2940 ca         1 LBD       0.438900
      7 C10          3.2490     1.1150     0.1020 ca         1 LBD       0.104000
      8 C11          4.5610     1.6210     0.0460 ca         1 LBD      -0.116000
      9 C12          4.7940     2.9970    -0.1080 ca         1 LBD      -0.071000
     10 C13          3.7110     3.8820    -0.2100 ca         1 LBD      -0.143000
     11 C14          2.3940     3.3960    -0.1570 ca         1 LBD      -0.060000
     12 C15          2.1580     2.0100     0.0020 ca         1 LBD      -0.219000
     13 C16          0.8620     1.4500     0.0630 ca         1 LBD       0.442900
     14 C18         -1.6310     1.9200     0.0460 cc         1 LBD       0.237000
     15 C21         -3.6760     1.0270    -0.1470 cd         1 LBD       0.275300
     16 C22         -4.7920     0.0300    -0.4650 c3         1 LBD      -0.073300
     17 C23         -4.8280    -0.2160    -1.9960 c3         1 LBD      -0.079100
     18 C24         -4.4990    -1.3090     0.2640 c3         1 LBD      -0.079100
     19 C25         -6.1900     0.5430    -0.0100 c3         1 LBD      -0.079100
     20 C26         -2.2980     0.8180    -0.3790 cd         1 LBD      -0.227000
     21 N04          1.0960    -4.9840     0.7610 n7         1 LBD      -0.857400
     22 N07          1.5550    -2.0410     0.4480 nh         1 LBD      -0.769300
     23 N09          3.0380    -0.2060     0.2480 nb         1 LBD      -0.292000
     24 N17         -0.2900     2.2350    -0.0070 nu         1 LBD      -0.928900
     25 N19         -2.6380     2.7710     0.4780 na         1 LBD      -0.052200
     26 N20         -3.9120     2.2220     0.3770 nc         1 LBD      -0.516800
     27 N27          0.6710     0.1340     0.2120 nb         1 LBD      -0.306000
     28 H1           1.8060    -3.6720    -1.8110 hc         1 LBD       0.043367
     29 H2           2.9200    -2.2990    -1.9260 hc         1 LBD       0.043367
     30 H3           3.5510    -3.9290    -1.6610 hc         1 LBD       0.043367
     31 H4           3.6210    -2.6470     0.4560 h1         1 LBD       0.085700
     32 H5           3.2070    -5.1230     0.5360 h1         1 LBD       0.039200
     33 H6           2.6670    -4.2270     1.9600 h1         1 LBD       0.039200
     34 H7           0.1820    -3.8160     2.2740 h1         1 LBD       0.039200
     35 H8          -0.9360    -4.4260     1.0430 h1         1 LBD       0.039200
     36 H9          -0.1740    -2.7720    -0.5920 h1         1 LBD       0.061700
     37 H10         -0.5550    -1.9520     0.9260 h1         1 LBD       0.061700
     38 H11          5.4050     0.9390     0.1230 ha         1 LBD       0.132000
     39 H12          5.8130     3.3750    -0.1500 ha         1 LBD       0.115000
     40 H13          3.8910     4.9480    -0.3320 ha         1 LBD       0.116000
     41 H14          1.5760     4.1050    -0.2430 ha         1 LBD       0.096000
     42 H15         -3.8740    -0.6230    -2.3530 hc         1 LBD       0.036033
     43 H16         -5.6190    -0.9280    -2.2620 hc         1 LBD       0.036033
     44 H17         -5.0180     0.7210    -2.5350 hc         1 LBD       0.036033
     45 H18         -4.4410    -1.1560     1.3480 hc         1 LBD       0.036033
     46 H19         -5.2870    -2.0450     0.0660 hc         1 LBD       0.036033
     47 H20         -3.5470    -1.7420    -0.0670 hc         1 LBD       0.036033
     48 H21         -6.4530     1.4780    -0.5190 hc         1 LBD       0.036033
     49 H22         -6.9710    -0.1930    -0.2410 hc         1 LBD       0.036033
     50 H23         -6.2110     0.7240     1.0720 hc         1 LBD       0.036033
     51 H24         -1.8550    -0.0640    -0.8220 ha         1 LBD       0.162000
     52 H25          1.0310    -5.8230     1.3530 hn         1 LBD       0.413000
     53 H27         -0.0930     3.2310     0.0660 hn         1 LBD       0.502000
     54 H28         -2.4970     3.7050     0.8510 hn         1 LBD       0.365000
@<TRIPOS>BOND
     1     1     2 1   
     2     1    28 1   
     3     1    29 1   
     4     1    30 1   
     5     2     3 1   
     6     2    22 1   
     7     2    31 1   
     8     3    21 1   
     9     3    32 1   
    10     3    33 1   
    11     4     5 1   
    12     4    21 1   
    13     4    34 1   
    14     4    35 1   
    15     5    22 1   
    16     5    36 1   
    17     5    37 1   
    18     6    22 1   
    19     6    23 ar  
    20     6    27 ar  
    21     7     8 ar  
    22     7    12 ar  
    23     7    23 ar  
    24     8     9 ar  
    25     8    38 1   
    26     9    10 ar  
    27     9    39 1   
    28    10    11 ar  
    29    10    40 1   
    30    11    12 ar  
    31    11    41 1   
    32    12    13 ar  
    33    13    24 1   
    34    13    27 ar  
    35    14    20 2   
    36    14    24 1   
    37    14    25 1   
    38    15    16 1   
    39    15    20 1   
    40    15    26 2   
    41    16    17 1   
    42    16    18 1   
    43    16    19 1   
    44    17    42 1   
    45    17    43 1   
    46    17    44 1   
    47    18    45 1   
    48    18    46 1   
    49    18    47 1   
    50    19    48 1   
    51    19    49 1   
    52    19    50 1   
    53    20    51 1   
    54    21    52 1   
    55    24    53 1   
    56    25    26 1   
    57    25    54 1   
@<TRIPOS>SUBSTRUCTURE
     1 LBD         1 TEMP              0 ****  ****    0 ROOT
