@<TRIPOS>MOLECULE
LBE
   67    70     1     0     0
SMALL
abcg2


@<TRIPOS>ATOM
      1 C1           1.6590    -0.7340     3.2290 c3         1 LBE       0.152300
      2 C2           0.4460    -0.5990     2.3370 ca         1 LBE      -0.074300
      3 C3           0.3950     0.3040     1.2820 ca         1 LBE      -0.112500
      4 C4          -0.7480     0.4240     0.5090 ca         1 LBE      -0.069000
      5 C5          -1.8670    -0.3640     0.7600 ca         1 LBE      -0.152600
      6 C6          -3.0690    -0.1750    -0.1100 c          1 LBE       0.612700
      7 C7          -5.1780    -1.1110    -0.9190 c3         1 LBE       0.105000
      8 C8          -6.2880    -0.3510    -0.2010 c3         1 LBE      -0.098400
      9 C9          -7.5330    -0.2360    -1.0710 c3         1 LBE      -0.069400
     10 C10         -8.7170     0.4660    -0.4080 c6         1 LBE      -0.057700
     11 C12        -11.1680     1.0730    -0.6840 c6         1 LBE      -0.072900
     12 C15         -8.4210     1.9290    -0.0720 c6         1 LBE      -0.072400
     13 C16         -1.8210    -1.2640     1.8230 ca         1 LBE      -0.069000
     14 C17         -0.6780    -1.3780     2.5980 ca         1 LBE      -0.112500
     15 C21          7.6790     1.7920    -1.6740 ca         1 LBE      -0.108500
     16 C22          8.7150     1.8590    -2.5940 ca         1 LBE      -0.099000
     17 C23          9.6180     0.8090    -2.7110 ca         1 LBE      -0.106000
     18 C24          9.4920    -0.3050    -1.8930 ca         1 LBE      -0.099000
     19 C25          8.4710    -0.3710    -0.9550 ca         1 LBE      -0.108500
     20 C26          5.2820     1.2950     1.6630 cc         1 LBE       0.303900
     21 O1          -3.2200     0.8580    -0.7520 o          1 LBE      -0.607100
     22 N1          -3.9460    -1.1890    -0.1630 ns         1 LBE      -0.504900
     23 C14         -9.6270     2.6310     0.5450 c6         1 LBE      -0.072900
     24 C13        -10.8550     2.5280    -0.3520 c6         1 LBE      -0.074400
     25 C11         -9.9590     0.3740    -1.2970 c6         1 LBE      -0.072400
     26 N            2.8550    -0.1230     2.7160 ns         1 LBE      -0.503900
     27 C            3.5820    -0.6900     1.7290 c          1 LBE       0.665700
     28 O            3.2810    -1.7880     1.2610 o          1 LBE      -0.644100
     29 C18          4.7350     0.0570     1.2520 cc         1 LBE      -0.380600
     30 N4           6.3330     1.6290     0.9680 nd         1 LBE      -0.511800
     31 N3           6.5090     0.6120     0.0820 na         1 LBE       0.159000
     32 C19          5.5670    -0.3490     0.2050 cd         1 LBE       0.346000
     33 N2           5.4590    -1.4080    -0.6230 nv         1 LBE      -1.079000
     34 C20          7.5600     0.6730    -0.8590 ca         1 LBE       0.016800
     35 H1           1.4430    -0.2690     4.1930 h1         1 LBE       0.060700
     36 H2           1.8420    -1.7900     3.4340 h1         1 LBE       0.060700
     37 H3           1.2510     0.9270     1.0560 ha         1 LBE       0.116000
     38 H4          -0.7670     1.1370    -0.3050 ha         1 LBE       0.121000
     39 H5          -5.4980    -2.1320    -1.1270 h1         1 LBE       0.050200
     40 H6          -4.9720    -0.6410    -1.8840 h1         1 LBE       0.050200
     41 H7          -6.5320    -0.8620     0.7360 hc         1 LBE       0.049700
     42 H8          -5.9200     0.6410     0.0680 hc         1 LBE       0.049700
     43 H9          -7.2780     0.2950    -1.9960 hc         1 LBE       0.037700
     44 H10         -7.8500    -1.2390    -1.3780 hc         1 LBE       0.037700
     45 H11         -8.9400    -0.0540     0.5350 hc         1 LBE       0.042700
     46 H12        -11.4620     0.5480     0.2310 hc         1 LBE       0.037200
     47 H13        -12.0210     1.0120    -1.3640 hc         1 LBE       0.037200
     48 H14         -7.5710     2.0000     0.6100 hc         1 LBE       0.039200
     49 H15         -8.1260     2.4510    -0.9910 hc         1 LBE       0.039200
     50 H16         -2.6770    -1.8760     2.0800 ha         1 LBE       0.121000
     51 H17         -0.6640    -2.0820     3.4220 ha         1 LBE       0.116000
     52 H18          6.9670     2.6020    -1.5880 ha         1 LBE       0.128500
     53 H19          8.8110     2.7320    -3.2260 ha         1 LBE       0.120000
     54 H20         10.4190     0.8620    -3.4360 ha         1 LBE       0.119000
     55 H21         10.1980    -1.1210    -1.9710 ha         1 LBE       0.120000
     56 H22          8.4020    -1.2230    -0.2890 ha         1 LBE       0.128500
     57 H23          4.9400     1.9480     2.4530 h4         1 LBE       0.032100
     58 H24         -3.7560    -2.0420     0.3370 hn         1 LBE       0.315500
     59 H25         -9.8510     2.1770     1.5170 hc         1 LBE       0.037200
     60 H26         -9.3870     3.6790     0.7430 hc         1 LBE       0.037200
     61 H27        -10.6710     3.0800    -1.2810 hc         1 LBE       0.037700
     62 H28        -11.7160     3.0030     0.1250 hc         1 LBE       0.037700
     63 H29         -9.7310     0.8310    -2.2690 hc         1 LBE       0.039200
     64 H30        -10.1930    -0.6750    -1.4980 hc         1 LBE       0.039200
     65 H31          3.0860     0.8000     3.0410 hn         1 LBE       0.315500
     66 H32          6.2580    -1.7070    -1.1570 hn         1 LBE       0.498000
     67 H33          4.8510    -2.1450    -0.3040 hn         1 LBE       0.498000
@<TRIPOS>BOND
     1     1     2 1   
     2     1    26 1   
     3     1    35 1   
     4     1    36 1   
     5     2     3 ar  
     6     2    14 ar  
     7     3     4 ar  
     8     3    37 1   
     9     4     5 ar  
    10     4    38 1   
    11     5     6 1   
    12     5    13 ar  
    13     6    21 2   
    14     6    22 1   
    15     7     8 1   
    16     7    22 1   
    17     7    39 1   
    18     7    40 1   
    19     8     9 1   
    20     8    41 1   
    21     8    42 1   
    22     9    10 1   
    23     9    43 1   
    24     9    44 1   
    25    10    12 1   
    26    10    25 1   
    27    10    45 1   
    28    11    24 1   
    29    11    25 1   
    30    11    46 1   
    31    11    47 1   
    32    12    23 1   
    33    12    48 1   
    34    12    49 1   
    35    13    14 ar  
    36    13    50 1   
    37    14    51 1   
    38    15    16 ar  
    39    15    34 ar  
    40    15    52 1   
    41    16    17 ar  
    42    16    53 1   
    43    17    18 ar  
    44    17    54 1   
    45    18    19 ar  
    46    18    55 1   
    47    19    34 ar  
    48    19    56 1   
    49    20    29 1   
    50    20    30 2   
    51    20    57 1   
    52    22    58 1   
    53    23    24 1   
    54    23    59 1   
    55    23    60 1   
    56    24    61 1   
    57    24    62 1   
    58    25    63 1   
    59    25    64 1   
    60    26    27 1   
    61    26    65 1   
    62    27    28 2   
    63    27    29 1   
    64    29    32 2   
    65    30    31 1   
    66    31    32 1   
    67    31    34 1   
    68    32    33 1   
    69    33    66 1   
    70    33    67 1   
@<TRIPOS>SUBSTRUCTURE
     1 LBE         1 TEMP              0 ****  ****    0 ROOT
