@<TRIPOS>MOLECULE
LBE
   67    70     1     0     0
SMALL
No Charge or Current Charge


@<TRIPOS>ATOM
      1 C1           1.7430    -0.0050     3.2610 c3         1 LBE       0.152300
      2 C2           0.4900     0.3550     2.4760 ca         1 LBE      -0.074300
      3 C3          -0.1030     1.6210     2.6200 ca         1 LBE      -0.112500
      4 C4          -1.2580     1.9540     1.8920 ca         1 LBE      -0.069000
      5 C5          -1.8450     1.0270     1.0000 ca         1 LBE      -0.152600
      6 C6          -3.0910     1.4220     0.2310 c          1 LBE       0.612700
      7 C7          -4.8280     0.6530    -1.4290 c3         1 LBE       0.105000
      8 C8          -6.1090     0.4410    -0.5970 c3         1 LBE      -0.098400
      9 C9          -7.4000     0.6010    -1.4340 c3         1 LBE      -0.069400
     10 C10         -8.7320     0.2920    -0.6820 c6         1 LBE      -0.057700
     11 C12        -11.2730     0.0090    -0.9480 c6         1 LBE      -0.072900
     12 C15         -8.9870     1.2570     0.5140 c6         1 LBE      -0.072400
     13 C16         -1.2400    -0.2460     0.8590 ca         1 LBE      -0.069000
     14 C17         -0.0850    -0.5740     1.5900 ca         1 LBE      -0.112500
     15 C21          7.4630    -0.1100    -2.3730 ca         1 LBE      -0.108500
     16 C22          8.5290    -0.4710    -3.2160 ca         1 LBE      -0.099000
     17 C23          9.7810    -0.7950    -2.6660 ca         1 LBE      -0.106000
     18 C24          9.9690    -0.7560    -1.2740 ca         1 LBE      -0.099000
     19 C25          8.9030    -0.3940    -0.4300 ca         1 LBE      -0.108500
     20 C26          5.2530     1.2910     1.0930 cc         1 LBE       0.303900
     21 O1          -3.6120     2.5220     0.3560 o          1 LBE      -0.607100
     22 N1          -3.6140     0.4770    -0.6280 ns         1 LBE      -0.504900
     23 C14        -10.3270     0.9440     1.2270 c6         1 LBE      -0.072900
     24 C13        -11.5140     0.9750     0.2360 c6         1 LBE      -0.074400
     25 C11         -9.9370     0.3270    -1.6640 c6         1 LBE      -0.072400
     26 N            2.9550     0.2960     2.4980 ns         1 LBE      -0.503900
     27 C            3.6590    -0.6200     1.7550 c          1 LBE       0.665700
     28 O            3.3380    -1.7980     1.6970 o          1 LBE      -0.644100
     29 C18          4.8160    -0.0530     1.0590 cc         1 LBE      -0.380600
     30 N4           6.3360     1.5440     0.3790 nd         1 LBE      -0.511800
     31 N3           6.5890     0.2870    -0.1380 na         1 LBE       0.159000
     32 C19          5.6810    -0.7130     0.2570 cd         1 LBE       0.346000
     33 N2           5.7210    -2.0300    -0.1180 nv         1 LBE      -1.079000
     34 C20          7.6450    -0.0730    -0.9760 ca         1 LBE       0.016800
     35 H1           1.7680     0.5670     4.1970 h1         1 LBE       0.060700
     36 H2           1.7230    -1.0700     3.5280 h1         1 LBE       0.060700
     37 H3           0.3310     2.3520     3.2990 ha         1 LBE       0.116000
     38 H4          -1.6960     2.9410     2.0240 ha         1 LBE       0.121000
     39 H5          -4.8050    -0.0700    -2.2560 h1         1 LBE       0.050200
     40 H6          -4.8300     1.6610    -1.8640 h1         1 LBE       0.050200
     41 H7          -6.0870    -0.5620    -0.1540 hc         1 LBE       0.049700
     42 H8          -6.1140     1.1600     0.2300 hc         1 LBE       0.049700
     43 H9          -7.4320     1.6220    -1.8360 hc         1 LBE       0.037700
     44 H10         -7.3210    -0.0630    -2.3040 hc         1 LBE       0.037700
     45 H11         -8.6380    -0.7310    -0.2900 hc         1 LBE       0.042700
     46 H12        -11.2600    -1.0280    -0.5840 hc         1 LBE       0.037200
     47 H13        -12.1050     0.0790    -1.6610 hc         1 LBE       0.037200
     48 H14         -8.1740     1.1830     1.2480 hc         1 LBE       0.039200
     49 H15         -8.9940     2.2970     0.1600 hc         1 LBE       0.039200
     50 H16         -1.6490    -0.9960     0.1870 ha         1 LBE       0.121000
     51 H17          0.3670    -1.5560     1.4660 ha         1 LBE       0.116000
     52 H18          6.4950     0.1410    -2.8030 ha         1 LBE       0.128500
     53 H19          8.3840    -0.5000    -4.2940 ha         1 LBE       0.120000
     54 H20         10.6060    -1.0750    -3.3190 ha         1 LBE       0.119000
     55 H21         10.9390    -1.0050    -0.8490 ha         1 LBE       0.120000
     56 H22          9.0540    -0.3630     0.6470 ha         1 LBE       0.128500
     57 H23          4.8030     2.1120     1.6360 h4         1 LBE       0.032100
     58 H24         -3.1270    -0.4070    -0.6850 hn         1 LBE       0.315500
     59 H25        -10.2690    -0.0450     1.7040 hc         1 LBE       0.037200
     60 H26        -10.4970     1.6690     2.0350 hc         1 LBE       0.037200
     61 H27        -11.6550     1.9970    -0.1420 hc         1 LBE       0.037700
     62 H28        -12.4430     0.7030     0.7570 hc         1 LBE       0.037700
     63 H29        -10.0030     1.3160    -2.1390 hc         1 LBE       0.039200
     64 H30         -9.7800    -0.3970    -2.4760 hc         1 LBE       0.039200
     65 H31          3.2870     1.2500     2.4860 hn         1 LBE       0.315500
     66 H32          6.5500    -2.4080    -0.5730 hn         1 LBE       0.498000
     67 H33          5.0850    -2.6860     0.3350 hn         1 LBE       0.498000
@<TRIPOS>BOND
     1     1     2 1   
     2     1    26 1   
     3     1    35 1   
     4     1    36 1   
     5     2     3 ar  
     6     2    14 ar  
     7     3     4 ar  
     8     3    37 1   
     9     4     5 ar  
    10     4    38 1   
    11     5     6 1   
    12     5    13 ar  
    13     6    21 2   
    14     6    22 1   
    15     7     8 1   
    16     7    22 1   
    17     7    39 1   
    18     7    40 1   
    19     8     9 1   
    20     8    41 1   
    21     8    42 1   
    22     9    10 1   
    23     9    43 1   
    24     9    44 1   
    25    10    12 1   
    26    10    25 1   
    27    10    45 1   
    28    11    24 1   
    29    11    25 1   
    30    11    46 1   
    31    11    47 1   
    32    12    23 1   
    33    12    48 1   
    34    12    49 1   
    35    13    14 ar  
    36    13    50 1   
    37    14    51 1   
    38    15    16 ar  
    39    15    34 ar  
    40    15    52 1   
    41    16    17 ar  
    42    16    53 1   
    43    17    18 ar  
    44    17    54 1   
    45    18    19 ar  
    46    18    55 1   
    47    19    34 ar  
    48    19    56 1   
    49    20    29 1   
    50    20    30 2   
    51    20    57 1   
    52    22    58 1   
    53    23    24 1   
    54    23    59 1   
    55    23    60 1   
    56    24    61 1   
    57    24    62 1   
    58    25    63 1   
    59    25    64 1   
    60    26    27 1   
    61    26    65 1   
    62    27    28 2   
    63    27    29 1   
    64    29    32 2   
    65    30    31 1   
    66    31    32 1   
    67    31    34 1   
    68    32    33 1   
    69    33    66 1   
    70    33    67 1   
@<TRIPOS>SUBSTRUCTURE
     1 LBE         1 TEMP              0 ****  ****    0 ROOT
