@<TRIPOS>MOLECULE
LBF
   86    86     1     0     0
SMALL
No Charge or Current Charge


@<TRIPOS>ATOM
      1 O6          -2.4590    -2.7720    -4.2250 o          1 LBF      -0.732000
      2 C24         -1.7490    -1.9120    -3.7280 c          1 LBF       0.699200
      3 O5          -0.5500    -2.0630    -3.5600 o          1 LBF      -0.732000
      4 C23         -2.4230    -0.6320    -3.3230 ce         1 LBF      -0.238200
      5 C22         -1.8800     0.4810    -2.7550 c2         1 LBF      -0.170400
      6 C33         -0.4100     0.6650    -2.3960 c3         1 LBF      -0.033900
      7 C21         -2.7350     1.6950    -2.4000 c3         1 LBF      -0.028200
      8 C20         -3.0150     1.8510    -0.8760 c3         1 LBF      -0.090700
      9 C32         -3.7820     0.6240    -0.3060 c3         1 LBF      -0.091100
     10 C19         -3.6900     3.2280    -0.5570 c3         1 LBF       0.176300
     11 O4          -4.9870     3.2740    -1.1620 oh         1 LBF      -0.654000
     12 C18         -3.8330     3.5660     0.9560 c3         1 LBF      -0.199700
     13 C31         -4.4350     4.9740     1.2110 c3         1 LBF      -0.075100
     14 C17         -2.4690     3.4440     1.6720 c          1 LBF       0.585100
     15 O3          -1.5190     4.1450     1.3410 o          1 LBF      -0.517100
     16 C16         -2.3310     2.3790     2.7920 c3         1 LBF      -0.127500
     17 C30         -1.9200     3.0340     4.1310 c3         1 LBF      -0.080100
     18 C15         -1.3540     1.2740     2.3960 c2         1 LBF      -0.200200
     19 C14         -1.3730    -0.0330     2.7570 ce         1 LBF      -0.065200
     20 C29         -2.4100    -0.6270     3.7060 c3         1 LBF      -0.061900
     21 C13         -0.3270    -0.9370     2.2400 ce         1 LBF      -0.174000
     22 C12         -0.2180    -2.2630     2.4890 c2         1 LBF      -0.216200
     23 C11          0.8750    -3.1600     1.9410 c3         1 LBF      -0.036200
     24 C10          2.2790    -2.8250     2.5090 c3         1 LBF      -0.029500
     25 C28          2.3690    -3.1080     4.0270 c3         1 LBF      -0.085100
     26 C9           3.3750    -3.5600     1.7470 c2         1 LBF      -0.179200
     27 C8           3.8880    -3.2600     0.5270 ce         1 LBF      -0.100200
     28 C26          5.0030    -4.1260    -0.0540 c3         1 LBF      -0.035200
     29 C27          4.4890    -5.1660    -1.0680 c3         1 LBF      -0.090100
     30 C7           3.3960    -2.1170    -0.2770 ce         1 LBF      -0.134000
     31 C6           3.8500    -1.7320    -1.4940 c2         1 LBF      -0.235200
     32 C5           3.2630    -0.5590    -2.2610 c6         1 LBF       0.231500
     33 O2           3.8230    -0.5250    -3.5890 os         1 LBF      -0.439100
     34 C4           3.4420     0.8050    -1.5380 c6         1 LBF      -0.072500
     35 C25          4.9110     1.1020    -1.1260 c3         1 LBF      -0.079100
     36 C3           2.9520     1.9030    -2.4570 c2         1 LBF      -0.158200
     37 C2           3.0170     1.7430    -3.7970 ce         1 LBF      -0.309200
     38 C1           3.5450     0.5080    -4.4520 c          1 LBF       0.660300
     39 O1           3.7310     0.4250    -5.6560 o          1 LBF      -0.498000
     40 H2          -3.4910    -0.6390    -3.5250 ha         1 LBF       0.141000
     41 H3          -0.1090    -0.0320    -1.6050 hc         1 LBF       0.028700
     42 H4           0.2320     0.4920    -3.2670 hc         1 LBF       0.028700
     43 H5          -0.1880     1.6770    -2.0360 hc         1 LBF       0.028700
     44 H6          -2.2490     2.6060    -2.7720 hc         1 LBF       0.035700
     45 H7          -3.6930     1.6420    -2.9310 hc         1 LBF       0.035700
     46 H8          -2.0330     1.8570    -0.3910 hc         1 LBF       0.052700
     47 H9          -3.9400     0.7130     0.7740 hc         1 LBF       0.033367
     48 H10         -4.7590     0.5060    -0.7900 hc         1 LBF       0.033367
     49 H11         -3.2130    -0.2980    -0.4690 hc         1 LBF       0.033367
     50 H12         -3.0550     4.0100    -1.0010 h1         1 LBF       0.082700
     51 H13         -5.4830     2.5000    -0.8220 ho         1 LBF       0.436000
     52 H14         -4.5310     2.8490     1.4010 hc         1 LBF       0.053700
     53 H15         -5.4500     5.0520     0.8030 hc         1 LBF       0.038700
     54 H16         -4.4910     5.1780     2.2870 hc         1 LBF       0.038700
     55 H17         -3.8190     5.7540     0.7470 hc         1 LBF       0.038700
     56 H18         -3.3210     1.9370     2.9380 hc         1 LBF       0.077700
     57 H19         -2.6410     3.8080     4.4190 hc         1 LBF       0.036700
     58 H20         -1.8830     2.2870     4.9330 hc         1 LBF       0.036700
     59 H21         -0.9290     3.4980     4.0510 hc         1 LBF       0.036700
     60 H22         -0.5620     1.6230     1.7310 ha         1 LBF       0.176000
     61 H23         -3.1010    -1.2880     3.1680 hc         1 LBF       0.047367
     62 H24         -1.9330    -1.2140     4.4990 hc         1 LBF       0.047367
     63 H25         -3.0140     0.1310     4.2140 hc         1 LBF       0.047367
     64 H26          0.4180    -0.4700     1.5950 ha         1 LBF       0.165000
     65 H27         -0.9370    -2.7870     3.1190 ha         1 LBF       0.178000
     66 H28          0.6440    -4.2110     2.1550 hc         1 LBF       0.049200
     67 H29          0.8930    -3.0760     0.8480 hc         1 LBF       0.049200
     68 H30          2.4440    -1.7470     2.3930 hc         1 LBF       0.050700
     69 H31          2.1840    -4.1680     4.2400 hc         1 LBF       0.036033
     70 H32          3.3650    -2.8500     4.4070 hc         1 LBF       0.036033
     71 H33          1.6340    -2.5130     4.5800 hc         1 LBF       0.036033
     72 H34          3.7670    -4.4240     2.2860 ha         1 LBF       0.170000
     73 H35          5.7770    -3.5080    -0.5250 hc         1 LBF       0.039700
     74 H36          5.5230    -4.6630     0.7490 hc         1 LBF       0.039700
     75 H37          5.3190    -5.7700    -1.4520 hc         1 LBF       0.037033
     76 H38          3.7650    -5.8390    -0.5930 hc         1 LBF       0.037033
     77 H39          3.9980    -4.6760    -1.9170 hc         1 LBF       0.037033
     78 H40          2.5780    -1.5450     0.1580 ha         1 LBF       0.172000
     79 H41          4.6590    -2.2540    -2.0020 ha         1 LBF       0.189000
     80 H42          2.1840    -0.7370    -2.3730 h1         1 LBF       0.054700
     81 H43          2.8390     0.8100    -0.6200 hc         1 LBF       0.070700
     82 H44          5.5810     1.0920    -1.9940 hc         1 LBF       0.042700
     83 H45          4.9950     2.0870    -0.6520 hc         1 LBF       0.042700
     84 H46          5.2840     0.3620    -0.4070 hc         1 LBF       0.042700
     85 H47          2.5730     2.8200    -1.9990 ha         1 LBF       0.185000
     86 H49          2.7060     2.5340    -4.4770 ha         1 LBF       0.206000
@<TRIPOS>BOND
     1     1     2 1   
     2     2     3 1   
     3     2     4 1   
     4     4     5 2   
     5     4    40 1   
     6     5     6 1   
     7     5     7 1   
     8     6    41 1   
     9     6    42 1   
    10     6    43 1   
    11     7     8 1   
    12     7    44 1   
    13     7    45 1   
    14     8     9 1   
    15     8    10 1   
    16     8    46 1   
    17     9    47 1   
    18     9    48 1   
    19     9    49 1   
    20    10    11 1   
    21    10    12 1   
    22    10    50 1   
    23    11    51 1   
    24    12    13 1   
    25    12    14 1   
    26    12    52 1   
    27    13    53 1   
    28    13    54 1   
    29    13    55 1   
    30    14    15 2   
    31    14    16 1   
    32    16    17 1   
    33    16    18 1   
    34    16    56 1   
    35    17    57 1   
    36    17    58 1   
    37    17    59 1   
    38    18    19 2   
    39    18    60 1   
    40    19    20 1   
    41    19    21 1   
    42    20    61 1   
    43    20    62 1   
    44    20    63 1   
    45    21    22 2   
    46    21    64 1   
    47    22    23 1   
    48    22    65 1   
    49    23    24 1   
    50    23    66 1   
    51    23    67 1   
    52    24    25 1   
    53    24    26 1   
    54    24    68 1   
    55    25    69 1   
    56    25    70 1   
    57    25    71 1   
    58    26    27 2   
    59    26    72 1   
    60    27    28 1   
    61    27    30 1   
    62    28    29 1   
    63    28    73 1   
    64    28    74 1   
    65    29    75 1   
    66    29    76 1   
    67    29    77 1   
    68    30    31 2   
    69    30    78 1   
    70    31    32 1   
    71    31    79 1   
    72    32    33 1   
    73    32    34 1   
    74    32    80 1   
    75    33    38 1   
    76    34    35 1   
    77    34    36 1   
    78    34    81 1   
    79    35    82 1   
    80    35    83 1   
    81    35    84 1   
    82    36    37 2   
    83    36    85 1   
    84    37    38 1   
    85    37    86 1   
    86    38    39 2   
@<TRIPOS>SUBSTRUCTURE
     1 LBF         1 TEMP              0 ****  ****    0 ROOT
