@<TRIPOS>MOLECULE
LBF
   86    86     1     0     0
SMALL
abcg2


@<TRIPOS>ATOM
      1 O6          -9.1510    -3.4780     0.2780 o          1 LBF      -0.732000
      2 C24         -7.9570    -3.2050     0.0210 c          1 LBF       0.699200
      3 O5          -7.0040    -4.0130     0.0490 o          1 LBF      -0.732000
      4 C23         -7.7060    -1.7630    -0.3410 ce         1 LBF      -0.238200
      5 C22         -6.5810    -1.1630    -0.7530 c2         1 LBF      -0.170400
      6 C33         -5.2530    -1.8300    -0.9570 c3         1 LBF      -0.033900
      7 C21         -6.5990     0.3120    -1.0560 c3         1 LBF      -0.028200
      8 C20         -5.6520     1.1380    -0.1720 c3         1 LBF      -0.090700
      9 C32         -5.9860     0.9560     1.3050 c3         1 LBF      -0.091100
     10 C19         -5.6700     2.6110    -0.6190 c3         1 LBF       0.176300
     11 O4          -6.9310     3.2060    -0.4180 oh         1 LBF      -0.654000
     12 C18         -4.5490     3.4680     0.0100 c3         1 LBF      -0.199700
     13 C31         -4.5980     4.9110    -0.4890 c3         1 LBF      -0.075100
     14 C17         -3.2050     2.8430    -0.3220 c          1 LBF       0.585100
     15 O3          -2.7840     2.8440    -1.4570 o          1 LBF      -0.517100
     16 C16         -2.4200     2.2480     0.8330 c3         1 LBF      -0.127500
     17 C30         -1.8250     3.4150     1.6430 c3         1 LBF      -0.080100
     18 C15         -1.3450     1.3210     0.3700 c2         1 LBF      -0.200200
     19 C14         -1.1720     0.0330     0.7030 ce         1 LBF      -0.065200
     20 C29         -2.0800    -0.7470     1.6060 c3         1 LBF      -0.061900
     21 C13         -0.0100    -0.6660     0.1530 ce         1 LBF      -0.174000
     22 C12          0.3400    -1.9320     0.4000 c2         1 LBF      -0.216200
     23 C11          1.5610    -2.5770    -0.1740 c3         1 LBF      -0.036200
     24 C10          2.7170    -2.7030     0.8430 c3         1 LBF      -0.029500
     25 C28          2.3170    -3.5180     2.0720 c3         1 LBF      -0.085100
     26 C9           3.8900    -3.3440     0.1670 c2         1 LBF      -0.179200
     27 C8           5.0410    -2.7880    -0.2440 ce         1 LBF      -0.100200
     28 C26          6.0550    -3.6320    -0.9740 c3         1 LBF      -0.035200
     29 C27          6.0110    -3.4390    -2.4900 c3         1 LBF      -0.090100
     30 C7           5.3220    -1.3670    -0.0490 ce         1 LBF      -0.134000
     31 C6           6.4390    -0.7340    -0.4190 c2         1 LBF      -0.235200
     32 C5           6.6640     0.7130    -0.1450 c6         1 LBF       0.231500
     33 O2           6.9750     1.3290    -1.4140 os         1 LBF      -0.439100
     34 C4           7.7660     0.9890     0.8760 c6         1 LBF      -0.072500
     35 C25          9.0700     0.2240     0.6380 c3         1 LBF      -0.079100
     36 C3           8.0280     2.4600     0.8930 c2         1 LBF      -0.158200
     37 C2           7.8020     3.2140    -0.1830 ce         1 LBF      -0.309200
     38 C1           7.3720     2.6020    -1.4470 c          1 LBF       0.660300
     39 O1           7.4070     3.1730    -2.5100 o          1 LBF      -0.498000
     40 H2          -8.5830    -1.1250    -0.2530 ha         1 LBF       0.141000
     41 H3          -4.5980    -1.6690    -0.0940 hc         1 LBF       0.028700
     42 H4          -5.3480    -2.9010    -1.0900 hc         1 LBF       0.028700
     43 H5          -4.7390    -1.4000    -1.8190 hc         1 LBF       0.028700
     44 H6          -6.3030     0.4590    -2.1020 hc         1 LBF       0.035700
     45 H7          -7.6150     0.6990    -0.9550 hc         1 LBF       0.035700
     46 H8          -4.6370     0.7620    -0.3480 hc         1 LBF       0.052700
     47 H9          -5.3750     1.5820     1.9570 hc         1 LBF       0.033367
     48 H10         -7.0340     1.1840     1.5110 hc         1 LBF       0.033367
     49 H11         -5.8250    -0.0760     1.6160 hc         1 LBF       0.033367
     50 H12         -5.5130     2.6320    -1.7030 h1         1 LBF       0.082700
     51 H13         -7.1040     3.2580     0.5290 ho         1 LBF       0.436000
     52 H14         -4.6750     3.4740     1.0980 hc         1 LBF       0.053700
     53 H15         -5.5360     5.3840    -0.2040 hc         1 LBF       0.038700
     54 H16         -3.7880     5.5020    -0.0590 hc         1 LBF       0.038700
     55 H17         -4.5090     4.9600    -1.5750 hc         1 LBF       0.038700
     56 H18         -3.1330     1.7330     1.4820 hc         1 LBF       0.077700
     57 H19         -2.5980     4.1070     1.9780 hc         1 LBF       0.036700
     58 H20         -1.3170     3.0310     2.5260 hc         1 LBF       0.036700
     59 H21         -1.1000     3.9730     1.0490 hc         1 LBF       0.036700
     60 H22         -0.6080     1.7710    -0.2890 ha         1 LBF       0.176000
     61 H23         -2.5040    -1.6060     1.0800 hc         1 LBF       0.047367
     62 H24         -1.5290    -1.1450     2.4610 hc         1 LBF       0.047367
     63 H25         -2.9070    -0.1590     1.9970 hc         1 LBF       0.047367
     64 H26          0.6180    -0.0800    -0.5150 ha         1 LBF       0.165000
     65 H27         -0.2670    -2.5420     1.0630 ha         1 LBF       0.178000
     66 H28          1.3120    -3.5760    -0.5470 hc         1 LBF       0.049200
     67 H29          1.9160    -1.9970    -1.0300 hc         1 LBF       0.049200
     68 H30          2.9660    -1.6920     1.1760 hc         1 LBF       0.050700
     69 H31          2.0260    -4.5330     1.7940 hc         1 LBF       0.036033
     70 H32          3.1460    -3.5910     2.7770 hc         1 LBF       0.036033
     71 H33          1.4770    -3.0630     2.5990 hc         1 LBF       0.036033
     72 H34          3.7560    -4.4060    -0.0350 ha         1 LBF       0.170000
     73 H35          7.0630    -3.4180    -0.6070 hc         1 LBF       0.039700
     74 H36          5.8700    -4.6830    -0.7460 hc         1 LBF       0.039700
     75 H37          6.7590    -4.0630    -2.9800 hc         1 LBF       0.037033
     76 H38          5.0320    -3.7150    -2.8850 hc         1 LBF       0.037033
     77 H39          6.2040    -2.4060    -2.7770 hc         1 LBF       0.037033
     78 H40          4.5550    -0.7780     0.4430 ha         1 LBF       0.172000
     79 H41          7.2450    -1.2600    -0.9180 ha         1 LBF       0.189000
     80 H42          5.7380     1.1650     0.2280 h1         1 LBF       0.054700
     81 H43          7.3670     0.6950     1.8510 hc         1 LBF       0.070700
     82 H44          9.4650     0.4060    -0.3620 hc         1 LBF       0.042700
     83 H45          9.8290     0.5340     1.3560 hc         1 LBF       0.042700
     84 H46          8.9220    -0.8490     0.7600 hc         1 LBF       0.042700
     85 H47          8.4450     2.8990     1.7920 ha         1 LBF       0.185000
     86 H49          8.0120     4.2740    -0.2010 ha         1 LBF       0.206000
@<TRIPOS>BOND
     1     1     2 1   
     2     2     3 1   
     3     2     4 1   
     4     4     5 2   
     5     4    40 1   
     6     5     6 1   
     7     5     7 1   
     8     6    41 1   
     9     6    42 1   
    10     6    43 1   
    11     7     8 1   
    12     7    44 1   
    13     7    45 1   
    14     8     9 1   
    15     8    10 1   
    16     8    46 1   
    17     9    47 1   
    18     9    48 1   
    19     9    49 1   
    20    10    11 1   
    21    10    12 1   
    22    10    50 1   
    23    11    51 1   
    24    12    13 1   
    25    12    14 1   
    26    12    52 1   
    27    13    53 1   
    28    13    54 1   
    29    13    55 1   
    30    14    15 2   
    31    14    16 1   
    32    16    17 1   
    33    16    18 1   
    34    16    56 1   
    35    17    57 1   
    36    17    58 1   
    37    17    59 1   
    38    18    19 2   
    39    18    60 1   
    40    19    20 1   
    41    19    21 1   
    42    20    61 1   
    43    20    62 1   
    44    20    63 1   
    45    21    22 2   
    46    21    64 1   
    47    22    23 1   
    48    22    65 1   
    49    23    24 1   
    50    23    66 1   
    51    23    67 1   
    52    24    25 1   
    53    24    26 1   
    54    24    68 1   
    55    25    69 1   
    56    25    70 1   
    57    25    71 1   
    58    26    27 2   
    59    26    72 1   
    60    27    28 1   
    61    27    30 1   
    62    28    29 1   
    63    28    73 1   
    64    28    74 1   
    65    29    75 1   
    66    29    76 1   
    67    29    77 1   
    68    30    31 2   
    69    30    78 1   
    70    31    32 1   
    71    31    79 1   
    72    32    33 1   
    73    32    34 1   
    74    32    80 1   
    75    33    38 1   
    76    34    35 1   
    77    34    36 1   
    78    34    81 1   
    79    35    82 1   
    80    35    83 1   
    81    35    84 1   
    82    36    37 2   
    83    36    85 1   
    84    37    38 1   
    85    37    86 1   
    86    38    39 2   
@<TRIPOS>SUBSTRUCTURE
     1 LBF         1 TEMP              0 ****  ****    0 ROOT
