@<TRIPOS>MOLECULE
LBG
   44    46     1     0     0
SMALL
No Charge or Current Charge


@<TRIPOS>ATOM
      1 C1          -1.1390    -0.3440    -2.5710 ca         1 LBG       0.024000
      2 C10          2.6340    -1.1000    -0.9740 ca         1 LBG      -0.085500
      3 C11          3.3910    -1.8890    -1.8570 ca         1 LBG      -0.111000
      4 C12          4.7450    -2.1450    -1.5840 ca         1 LBG      -0.097000
      5 C13          5.3390    -1.6100    -0.4300 ca         1 LBG      -0.111000
      6 C14          4.5810    -0.8210     0.4520 ca         1 LBG      -0.085500
      7 C15          1.5430     1.2930     0.5880 ca         1 LBG      -0.031000
      8 C16         -2.3160     1.0430    -0.4320 ca         1 LBG       0.074000
      9 C17         -2.7660    -0.2530    -0.7500 ca         1 LBG      -0.196600
     10 C18         -3.8680    -0.8790     0.0640 c          1 LBG       0.613700
     11 C19         -5.2510    -2.8330     0.3650 c3         1 LBG       0.154900
     12 C2          -0.6930     0.9560    -2.2540 ca         1 LBG       0.292100
     13 C20         -2.1660    -0.9440    -1.8250 ca         1 LBG       0.038000
     14 C3          -1.2810     1.6470    -1.1750 ca         1 LBG      -0.431500
     15 C4           0.7290     2.0990     1.4120 ca         1 LBG       0.155000
     16 C5           0.7960     1.9080     2.8130 ca         1 LBG       0.184000
     17 C6           1.6370     0.9330     3.3670 ca         1 LBG      -0.190000
     18 C7           2.4260     0.1310     2.5320 ca         1 LBG       0.223000
     19 C8           2.3950     0.2950     1.1230 cp         1 LBG      -0.073000
     20 C9           3.2120    -0.5530     0.1990 cp         1 LBG      -0.049000
     21 F1           0.0320     2.6590     3.6400 f          1 LBG      -0.166000
     22 F2           3.1950    -0.8250     3.1010 f          1 LBG      -0.158000
     23 N1          -0.1440     3.0650     0.8740 nu         1 LBG      -0.863100
     24 O1           0.3070     1.5130    -3.0000 oh         1 LBG      -0.509100
     25 O2           0.4000     3.6870    -1.4840 o          1 LBG      -0.530500
     26 O3          -1.9110     4.1250    -0.4520 o          1 LBG      -0.530500
     27 O4          -4.4050    -0.3080     1.0040 o          1 LBG      -0.485000
     28 O5          -4.2070    -2.1430    -0.3470 os         1 LBG      -0.441100
     29 S1          -0.7470     3.2700    -0.6760 sy         1 LBG       1.157600
     30 Cl1         -0.4130    -1.2550    -3.9000 cl         1 LBG      -0.162000
     31 H2           2.9280    -2.3020    -2.7500 ha         1 LBG       0.117000
     32 H3           5.3320    -2.7560    -2.2670 ha         1 LBG       0.116000
     33 H4           6.3890    -1.8040    -0.2190 ha         1 LBG       0.117000
     34 H5           5.0610    -0.4020     1.3330 ha         1 LBG       0.118500
     35 H6           1.5340     1.4390    -0.4850 ha         1 LBG       0.153000
     36 H7          -2.7670     1.5800     0.4030 ha         1 LBG       0.154000
     37 H8          -6.1970    -2.2770     0.3120 h1         1 LBG       0.051367
     38 H9          -5.4170    -3.8270    -0.0690 h1         1 LBG       0.051367
     39 H10         -4.9840    -2.9640     1.4220 h1         1 LBG       0.051367
     40 H11         -2.4870    -1.9480    -2.0940 ha         1 LBG       0.150000
     41 H12          1.6690     0.7910     4.4440 ha         1 LBG       0.158000
     42 H13         -0.7640     3.5630     1.5020 hn         1 LBG       0.509000
     43 H14          0.5050     2.4070    -2.6290 ho         1 LBG       0.523000
     44 H1           1.5850    -0.9190    -1.1970 ha         1 LBG       0.118500
@<TRIPOS>BOND
     1     1    12 ar  
     2     1    13 ar  
     3     1    30 1   
     4     2     3 ar  
     5     2    20 ar  
     6     2    44 1   
     7     3     4 ar  
     8     3    31 1   
     9     4     5 ar  
    10     4    32 1   
    11     5     6 ar  
    12     5    33 1   
    13     6    20 ar  
    14     6    34 1   
    15     7    15 ar  
    16     7    19 ar  
    17     7    35 1   
    18     8     9 ar  
    19     8    14 ar  
    20     8    36 1   
    21     9    10 1   
    22     9    13 ar  
    23    10    27 2   
    24    10    28 1   
    25    11    28 1   
    26    11    37 1   
    27    11    38 1   
    28    11    39 1   
    29    12    14 ar  
    30    12    24 1   
    31    13    40 1   
    32    14    29 1   
    33    15    16 ar  
    34    15    23 1   
    35    16    17 ar  
    36    16    21 1   
    37    17    18 ar  
    38    17    41 1   
    39    18    19 ar  
    40    18    22 1   
    41    19    20 1   
    42    23    29 1   
    43    23    42 1   
    44    24    43 1   
    45    25    29 2   
    46    26    29 2   
@<TRIPOS>SUBSTRUCTURE
     1 LBG         1 TEMP              0 ****  ****    0 ROOT
