@<TRIPOS>MOLECULE
LBG
   44    46     1     0     0
SMALL
bcc


@<TRIPOS>ATOM
      1 C1          -1.8770    -1.3200    -1.4500 ca         1 LBG      -0.067600
      2 C10          4.3360    -0.0010    -1.4600 ca         1 LBG      -0.103500
      3 C11          5.5810    -0.1570    -2.0530 ca         1 LBG      -0.129000
      4 C12          6.6880    -0.4640    -1.2730 ca         1 LBG      -0.115000
      5 C13          6.5430    -0.6100     0.1010 ca         1 LBG      -0.129000
      6 C14          5.2990    -0.4550     0.6940 ca         1 LBG      -0.103500
      7 C15          2.1080     1.1960     0.2610 ca         1 LBG      -0.049000
      8 C16         -2.8650     1.0170    -0.3510 ca         1 LBG       0.056000
      9 C17         -3.6040    -0.1480    -0.2550 ca         1 LBG      -0.196600
     10 C18         -4.9160    -0.0950     0.4350 c          1 LBG       0.662700
     11 C19         -6.7890    -1.3500     1.1100 c3         1 LBG       0.131700
     12 C2          -1.1150    -0.1490    -1.5820 ca         1 LBG       0.292100
     13 C20         -3.0920    -1.3250    -0.8050 ca         1 LBG       0.020000
     14 C3          -1.6370     1.0160    -0.9970 ca         1 LBG      -0.431500
     15 C4           0.8400     1.3870     0.7900 ca         1 LBG       0.016600
     16 C5           0.3170     0.4030     1.6210 ca         1 LBG       0.148900
     17 C6           1.0200    -0.7420     1.9270 ca         1 LBG      -0.208000
     18 C7           2.2710    -0.8970     1.3620 ca         1 LBG       0.187900
     19 C8           2.8510     0.0490     0.5250 cp         1 LBG      -0.073000
     20 C9           4.1820    -0.1470    -0.0830 cp         1 LBG      -0.049000
     21 F1          -0.8990     0.5770     2.1390 f          1 LBG      -0.130900
     22 F2           2.9360    -2.0240     1.6270 f          1 LBG      -0.122900
     23 N1           0.0940     2.5440     0.4650 nu         1 LBG      -0.669500
     24 O1           0.0290    -0.2340    -2.2330 oh         1 LBG      -0.470100
     25 O2           0.3040     2.3910    -2.0270 o          1 LBG      -0.601300
     26 O3          -1.6010     3.6630    -0.9780 o          1 LBG      -0.601300
     27 O4          -5.3790     0.9140     0.9080 o          1 LBG      -0.534000
     28 O5          -5.5130    -1.2710     0.4700 os         1 LBG      -0.417900
     29 S1          -0.7120     2.5230    -0.9840 sy         1 LBG       1.299200
     30 CL1         -1.2540    -2.7730    -2.1300 cl         1 LBG      -0.070400
     31 H2           5.6840    -0.0460    -3.1240 ha         1 LBG       0.135000
     32 H3           7.6600    -0.5880    -1.7330 ha         1 LBG       0.134000
     33 H4           7.4040    -0.8410     0.7150 ha         1 LBG       0.135000
     34 H5           5.2060    -0.5500     1.7680 ha         1 LBG       0.136500
     35 H6           2.5370     1.9720    -0.3590 ha         1 LBG       0.171000
     36 H7          -3.2480     1.9310     0.0820 ha         1 LBG       0.172000
     37 H8          -7.5200    -0.7150     0.6120 h1         1 LBG       0.051367
     38 H9          -7.0960    -2.3880     1.0300 h1         1 LBG       0.051367
     39 H10         -6.7210    -1.0710     2.1600 h1         1 LBG       0.051367
     40 H11         -3.6420    -2.2530    -0.7380 ha         1 LBG       0.168000
     41 H12          0.5970    -1.5020     2.5700 ha         1 LBG       0.176000
     42 H13         -0.4560     2.9580     1.2120 hn         1 LBG       0.453800
     43 H14          0.4140     0.6550    -2.3620 ho         1 LBG       0.484000
     44 H1           3.4730     0.2240    -2.0760 ha         1 LBG       0.136500
@<TRIPOS>BOND
     1     1    12 ar  
     2     1    13 ar  
     3     1    30 1   
     4     2     3 ar  
     5     2    20 ar  
     6     2    44 1   
     7     3     4 ar  
     8     3    31 1   
     9     4     5 ar  
    10     4    32 1   
    11     5     6 ar  
    12     5    33 1   
    13     6    20 ar  
    14     6    34 1   
    15     7    15 ar  
    16     7    19 ar  
    17     7    35 1   
    18     8     9 ar  
    19     8    14 ar  
    20     8    36 1   
    21     9    10 1   
    22     9    13 ar  
    23    10    27 2   
    24    10    28 1   
    25    11    28 1   
    26    11    37 1   
    27    11    38 1   
    28    11    39 1   
    29    12    14 ar  
    30    12    24 1   
    31    13    40 1   
    32    14    29 1   
    33    15    16 ar  
    34    15    23 1   
    35    16    17 ar  
    36    16    21 1   
    37    17    18 ar  
    38    17    41 1   
    39    18    19 ar  
    40    18    22 1   
    41    19    20 1   
    42    23    29 1   
    43    23    42 1   
    44    24    43 1   
    45    25    29 2   
    46    26    29 2   
@<TRIPOS>SUBSTRUCTURE
     1 LBG         1 TEMP              0 ****  ****    0 ROOT
