@<TRIPOS>MOLECULE
LBH
   49    51     1     0     0
SMALL
bcc


@<TRIPOS>ATOM
      1 O1           8.2680     0.7520     0.9260 o          1 LBH      -0.575100
      2 C21          7.8910    -0.2470     0.3340 c          1 LBH       0.672300
      3 N3           8.7120    -1.2710     0.0150 ns         1 LBH      -0.451400
      4 O2          10.0580    -1.1210     0.1480 oh         1 LBH      -0.389100
      5 C20          6.4940    -0.4910    -0.0820 ce         1 LBH      -0.261200
      6 C19          5.5370     0.3990     0.1950 cf         1 LBH      -0.014200
      7 C16          4.1250     0.3020    -0.1600 ca         1 LBH      -0.080800
      8 C15          3.6020    -0.7290    -0.9450 ca         1 LBH      -0.106500
      9 C14          2.2520    -0.7690    -1.2470 ca         1 LBH      -0.121500
     10 C17          3.2460     1.2860     0.3020 ca         1 LBH      -0.106500
     11 C18          1.8960     1.2410     0.0010 ca         1 LBH      -0.121500
     12 C13          1.3790     0.2140    -0.7850 ca         1 LBH      -0.071300
     13 C12         -0.0810     0.1780    -1.1480 c3         1 LBH       0.203100
     14 N2          -0.9260     0.4170     0.0040 n7         1 LBH      -0.809200
     15 C11         -2.3360     0.4540    -0.3370 c3         1 LBH       0.155800
     16 C10         -3.1940     0.6660     0.9080 c3         1 LBH      -0.001200
     17 C3          -4.6540     0.6630     0.5980 cc         1 LBH      -0.140400
     18 C4          -5.4400    -0.4970     0.2930 ca         1 LBH      -0.094800
     19 C9          -6.7540    -0.0550     0.0300 ca         1 LBH      -0.042200
     20 N1          -6.7560     1.3020     0.1700 na         1 LBH      -0.176400
     21 C2          -5.4990     1.7390     0.5090 cd         1 LBH      -0.047300
     22 C1          -5.2410     3.1870     0.7220 c3         1 LBH      -0.041900
     23 C8          -7.7820    -0.9360    -0.3000 ca         1 LBH      -0.147000
     24 C7          -7.4730    -2.2830    -0.3640 ca         1 LBH      -0.111000
     25 C6          -6.1730    -2.7450    -0.1040 ca         1 LBH      -0.160000
     26 C5          -5.1570    -1.8650     0.2220 ca         1 LBH      -0.082000
     27 H1           8.4340    -2.0060    -0.6210 hn         1 LBH       0.331500
     28 H2          10.2970    -1.5500     0.9810 ho         1 LBH       0.407000
     29 H3           6.2740    -1.4100    -0.6140 ha         1 LBH       0.128000
     30 H4           5.8200     1.2930     0.7420 ha         1 LBH       0.147000
     31 H5           4.2470    -1.5090    -1.3300 ha         1 LBH       0.132500
     32 H6           1.8680    -1.5820    -1.8510 ha         1 LBH       0.140000
     33 H7           3.6310     2.0990     0.9070 ha         1 LBH       0.132500
     34 H8           1.2360     2.0110     0.3800 ha         1 LBH       0.140000
     35 H9          -0.2820     0.9670    -1.8810 h1         1 LBH       0.039200
     36 H10         -0.3040    -0.7710    -1.6580 h1         1 LBH       0.039200
     37 H11         -0.7710    -0.3230     0.6800 hn         1 LBH       0.353800
     38 H13         -2.5010     1.2820    -1.0320 h1         1 LBH       0.034700
     39 H14         -2.6700    -0.4580    -0.8560 h1         1 LBH       0.034700
     40 H15         -2.9720    -0.1260     1.6320 hc         1 LBH       0.048700
     41 H16         -2.8990     1.6040     1.3840 hc         1 LBH       0.048700
     42 H17         -7.5560     1.9000     0.0470 hn         1 LBH       0.297700
     43 H18         -5.4480     3.7670    -0.1790 hc         1 LBH       0.050033
     44 H19         -5.8690     3.5900     1.5190 hc         1 LBH       0.050033
     45 H20         -4.2030     3.3610     0.9970 hc         1 LBH       0.050033
     46 H21         -8.7860    -0.5820    -0.5000 ha         1 LBH       0.130000
     47 H22         -8.2490    -2.9940    -0.6180 ha         1 LBH       0.128000
     48 H23         -5.9670    -3.8060    -0.1630 ha         1 LBH       0.128000
     49 H24         -4.1560    -2.2330     0.4220 ha         1 LBH       0.129000
@<TRIPOS>BOND
     1     1     2 2   
     2     2     3 1   
     3     2     5 1   
     4     3     4 1   
     5     3    27 1   
     6     4    28 1   
     7     5     6 2   
     8     5    29 1   
     9     6     7 1   
    10     6    30 1   
    11     7     8 ar  
    12     7    10 ar  
    13     8     9 ar  
    14     8    31 1   
    15     9    12 ar  
    16     9    32 1   
    17    10    11 ar  
    18    10    33 1   
    19    11    12 ar  
    20    11    34 1   
    21    12    13 1   
    22    13    14 1   
    23    13    35 1   
    24    13    36 1   
    25    14    15 1   
    26    14    37 1   
    27    15    16 1   
    28    15    38 1   
    29    15    39 1   
    30    16    17 1   
    31    16    40 1   
    32    16    41 1   
    33    17    18 1   
    34    17    21 2   
    35    18    19 ar  
    36    18    26 ar  
    37    19    20 1   
    38    19    23 ar  
    39    20    21 1   
    40    20    42 1   
    41    21    22 1   
    42    22    43 1   
    43    22    44 1   
    44    22    45 1   
    45    23    24 ar  
    46    23    46 1   
    47    24    25 ar  
    48    24    47 1   
    49    25    26 ar  
    50    25    48 1   
    51    26    49 1   
@<TRIPOS>SUBSTRUCTURE
     1 LBH         1 TEMP              0 ****  ****    0 ROOT
