@<TRIPOS>MOLECULE
LBH
   49    51     1     0     0
SMALL
No Charge or Current Charge


@<TRIPOS>ATOM
      1 O1           8.4050     0.7150     0.7400 o          1 LBH      -0.575100
      2 C21          7.8910    -0.3700     0.5020 c          1 LBH       0.605300
      3 N3           8.5930    -1.5660     0.5680 ns         1 LBH      -0.384400
      4 O2          10.0390    -1.5810     0.6670 oh         1 LBH      -0.428100
      5 C20          6.4590    -0.5210     0.1280 ce         1 LBH      -0.311200
      6 C19          5.5780     0.5170     0.0030 cf         1 LBH      -0.064200
      7 C16          4.1450     0.4930    -0.3580 ca         1 LBH      -0.080800
      8 C15          3.4670    -0.7120    -0.6400 ca         1 LBH      -0.088500
      9 C14          2.1030    -0.7020    -0.9810 ca         1 LBH      -0.103500
     10 C17          3.4290     1.7050    -0.4260 ca         1 LBH      -0.088500
     11 C18          2.0650     1.7140    -0.7670 ca         1 LBH      -0.103500
     12 C13          1.3930     0.5110    -1.0480 ca         1 LBH      -0.071300
     13 C12         -0.0840     0.5230    -1.4230 c3         1 LBH       0.203100
     14 N2          -0.9260     0.5570    -0.2140 n7         1 LBH      -0.864400
     15 C11         -2.3820     0.5300    -0.4650 c3         1 LBH       0.155800
     16 C10         -3.1700     0.5920     0.8610 c3         1 LBH      -0.001200
     17 C3          -4.6640     0.5640     0.6500 cc         1 LBH      -0.140400
     18 C4          -5.4470    -0.5760     0.2630 ca         1 LBH      -0.094800
     19 C9          -6.7490    -0.1740     0.1640 ca         1 LBH      -0.042200
     20 N1          -6.8700     1.1700     0.4640 na         1 LBH      -0.226700
     21 C2          -5.5640     1.6220     0.7630 cd         1 LBH      -0.047300
     22 C1          -5.2720     3.0530     1.1320 c3         1 LBH      -0.041900
     23 C8          -7.7660    -1.0680    -0.1990 ca         1 LBH      -0.129000
     24 C7          -7.4110    -2.4080    -0.4620 ca         1 LBH      -0.093000
     25 C6          -6.0630    -2.8230    -0.3560 ca         1 LBH      -0.142000
     26 C5          -5.0600    -1.9010     0.0110 ca         1 LBH      -0.064000
     27 H1           8.1580    -2.4180     0.2200 hn         1 LBH       0.331500
     28 H2          10.2130    -2.1960     1.4180 ho         1 LBH       0.446000
     29 H3           6.1220    -1.5380    -0.0510 ha         1 LBH       0.178000
     30 H4           5.9670     1.5210     0.1950 ha         1 LBH       0.197000
     31 H5           3.9860    -1.6660    -0.5970 ha         1 LBH       0.114500
     32 H6           1.5980    -1.6420    -1.1950 ha         1 LBH       0.122000
     33 H7           3.9270     2.6480    -0.2120 ha         1 LBH       0.114500
     34 H8           1.5270     2.6590    -0.8120 ha         1 LBH       0.122000
     35 H9          -0.2860     1.3980    -2.0560 h1         1 LBH       0.039200
     36 H10         -0.3090    -0.3710    -2.0230 h1         1 LBH       0.039200
     37 H11         -0.6820    -0.2590     0.3580 hn         1 LBH       0.409000
     38 H13         -2.6770     1.3840    -1.0890 h1         1 LBH       0.034700
     39 H14         -2.6590    -0.3870    -1.0030 h1         1 LBH       0.034700
     40 H15         -2.8780    -0.2540     1.4940 hc         1 LBH       0.048700
     41 H16         -2.8840     1.4990     1.4050 hc         1 LBH       0.048700
     42 H17         -7.7210     1.7210     0.4650 hn         1 LBH       0.348000
     43 H18         -6.1630     3.6850     1.0340 hc         1 LBH       0.050033
     44 H19         -4.9220     3.1260     2.1680 hc         1 LBH       0.050033
     45 H20         -4.4940     3.4730     0.4840 hc         1 LBH       0.050033
     46 H21         -8.8000    -0.7400    -0.2760 ha         1 LBH       0.112000
     47 H22         -8.1790    -3.1260    -0.7460 ha         1 LBH       0.110000
     48 H23         -5.7970    -3.8580    -0.5590 ha         1 LBH       0.110000
     49 H24         -4.0210    -2.2100     0.0970 ha         1 LBH       0.111000
@<TRIPOS>BOND
     1     1     2 2   
     2     2     3 1   
     3     2     5 1   
     4     3     4 1   
     5     3    27 1   
     6     4    28 1   
     7     5     6 2   
     8     5    29 1   
     9     6     7 1   
    10     6    30 1   
    11     7     8 ar  
    12     7    10 ar  
    13     8     9 ar  
    14     8    31 1   
    15     9    12 ar  
    16     9    32 1   
    17    10    11 ar  
    18    10    33 1   
    19    11    12 ar  
    20    11    34 1   
    21    12    13 1   
    22    13    14 1   
    23    13    35 1   
    24    13    36 1   
    25    14    15 1   
    26    14    37 1   
    27    15    16 1   
    28    15    38 1   
    29    15    39 1   
    30    16    17 1   
    31    16    40 1   
    32    16    41 1   
    33    17    18 1   
    34    17    21 2   
    35    18    19 ar  
    36    18    26 ar  
    37    19    20 1   
    38    19    23 ar  
    39    20    21 1   
    40    20    42 1   
    41    21    22 1   
    42    22    43 1   
    43    22    44 1   
    44    22    45 1   
    45    23    24 ar  
    46    23    46 1   
    47    24    25 ar  
    48    24    47 1   
    49    25    26 ar  
    50    25    48 1   
    51    26    49 1   
@<TRIPOS>SUBSTRUCTURE
     1 LBH         1 TEMP              0 ****  ****    0 ROOT
