@<TRIPOS>MOLECULE
LBI
   22    23     1     0     0
SMALL
No Charge or Current Charge


@<TRIPOS>ATOM
      1 C8         -46.5840    18.4860   -11.1820 ca         1 LBI      -0.173000
      2 C9         -47.2590    18.9900   -12.3150 ca         1 LBI      -0.036000
      3 C10        -47.9810    20.2070   -12.2390 ca         1 LBI      -0.249000
      4 C1         -49.4350    22.7230   -11.9700 c3         1 LBI       0.146900
      5 C2         -48.0320    20.9340   -11.0230 ca         1 LBI       0.205100
      6 C3         -47.3480    20.3980    -9.9240 ca         1 LBI      -0.152800
      7 C5         -46.4110    19.9730    -7.8380 cc         1 LBI      -0.214300
      8 C6         -46.0490    20.1370    -6.4090 c          1 LBI       0.602100
      9 C7         -46.6520    19.2250    -9.9950 ca         1 LBI       0.001800
     10 N1         -46.0840    18.9500    -8.7610 na         1 LBI      -0.184700
     11 C4         -47.1930    20.8630    -8.5670 cd         1 LBI      -0.137200
     12 O1         -48.7150    22.1250   -10.8790 os         1 LBI      -0.334100
     13 O2         -45.3570    19.3370    -5.7870 o          1 LBI      -0.535100
     14 H1         -46.0280    17.5530   -11.2330 ha         1 LBI       0.121000
     15 H2         -47.2250    18.4380   -13.2520 ha         1 LBI       0.110000
     16 H3         -48.4890    20.5670   -13.1290 ha         1 LBI       0.117000
     17 H4         -49.9050    23.6610   -11.6470 h1         1 LBI       0.042700
     18 H5         -48.7600    22.9510   -12.8050 h1         1 LBI       0.042700
     19 H6         -50.2260    22.0530   -12.3300 h1         1 LBI       0.042700
     20 H7         -46.4500    21.0510    -5.9190 h4         1 LBI       0.005200
     21 H8         -45.5160    18.1330    -8.5540 hn         1 LBI       0.367000
     22 H9         -47.6270    21.7800    -8.1720 ha         1 LBI       0.213000
@<TRIPOS>BOND
     1     1     2 ar  
     2     1     9 ar  
     3     1    14 1   
     4     2     3 ar  
     5     2    15 1   
     6     3     5 ar  
     7     3    16 1   
     8     4    12 1   
     9     4    17 1   
    10     4    18 1   
    11     4    19 1   
    12     5     6 ar  
    13     5    12 1   
    14     6     9 ar  
    15     6    11 1   
    16     7     8 1   
    17     7    10 1   
    18     7    11 2   
    19     8    13 2   
    20     8    20 1   
    21     9    10 1   
    22    10    21 1   
    23    11    22 1   
@<TRIPOS>SUBSTRUCTURE
     1 LBI         1 TEMP              0 ****  ****    0 ROOT
