@<TRIPOS>MOLECULE
LBI
   22    23     1     0     0
SMALL
abcg2


@<TRIPOS>ATOM
      1 C8         -46.5840    18.5070   -11.1560 ca         1 LBI      -0.173000
      2 C9         -47.2540    19.0150   -12.2440 ca         1 LBI      -0.036000
      3 C10        -47.9840    20.2220   -12.1980 ca         1 LBI      -0.249000
      4 C1         -49.3950    22.6560   -11.9780 c3         1 LBI       0.146900
      5 C2         -48.0530    20.9540   -11.0290 ca         1 LBI       0.205100
      6 C3         -47.3770    20.4660    -9.8910 ca         1 LBI      -0.152800
      7 C5         -46.4590    20.0320    -7.8970 cc         1 LBI      -0.214300
      8 C6         -46.0420    20.0690    -6.5140 c          1 LBI       0.602100
      9 C7         -46.6580    19.2530    -9.9730 ca         1 LBI       0.001800
     10 N1         -46.1160    19.0170    -8.7540 na         1 LBI      -0.184700
     11 C4         -47.2380    20.9460    -8.5660 cd         1 LBI      -0.137200
     12 O1         -48.7170    22.1060   -10.8650 os         1 LBI      -0.334100
     13 O2         -45.3700    19.2100    -5.9810 o          1 LBI      -0.535100
     14 H1         -46.0320    17.5790   -11.2100 ha         1 LBI       0.121000
     15 H2         -47.2270    18.4740   -13.1800 ha         1 LBI       0.110000
     16 H3         -48.4850    20.5520   -13.0980 ha         1 LBI       0.117000
     17 H4         -49.8570    23.5780   -11.6350 h1         1 LBI       0.042700
     18 H5         -48.7090    22.8870   -12.7970 h1         1 LBI       0.042700
     19 H6         -50.1750    21.9860   -12.3500 h1         1 LBI       0.042700
     20 H7         -46.3930    20.9590    -5.9660 h4         1 LBI       0.005200
     21 H8         -45.5480    18.2210    -8.5070 hn         1 LBI       0.367000
     22 H9         -47.6520    21.8470    -8.1400 ha         1 LBI       0.213000
@<TRIPOS>BOND
     1     1     2 ar  
     2     1     9 ar  
     3     1    14 1   
     4     2     3 ar  
     5     2    15 1   
     6     3     5 ar  
     7     3    16 1   
     8     4    12 1   
     9     4    17 1   
    10     4    18 1   
    11     4    19 1   
    12     5     6 ar  
    13     5    12 1   
    14     6     9 ar  
    15     6    11 1   
    16     7     8 1   
    17     7    10 1   
    18     7    11 2   
    19     8    13 2   
    20     8    20 1   
    21     9    10 1   
    22    10    21 1   
    23    11    22 1   
@<TRIPOS>SUBSTRUCTURE
     1 LBI         1 TEMP              0 ****  ****    0 ROOT
