@<TRIPOS>MOLECULE
LBJ
   29    31     1     0     0
SMALL
bcc


@<TRIPOS>ATOM
      1 C1         -13.7600   -17.3640    -7.9650 c3         1 LBJ       0.126700
      2 C10        -18.7930   -19.5180    -6.3100 c6         1 LBJ      -0.035200
      3 C11        -19.9530   -20.3190    -5.7030 c6         1 LBJ       0.148800
      4 C12        -19.9890   -19.1450    -3.5850 c6         1 LBJ       0.213000
      5 C2         -14.7180   -17.1600    -5.8050 ca         1 LBJ       0.111100
      6 C3         -14.5830   -16.6360    -4.5030 ca         1 LBJ      -0.136000
      7 C4         -15.5620   -16.8230    -3.5490 ca         1 LBJ      -0.111000
      8 C5         -16.6960   -17.5480    -3.9070 ca         1 LBJ      -0.077200
      9 C6         -18.6580   -18.5960    -3.9860 cc         1 LBJ      -0.098300
     10 C7         -18.1060   -18.7540    -5.2260 cd         1 LBJ      -0.153400
     11 C8         -16.8460   -18.0810    -5.2040 ca         1 LBJ      -0.048800
     12 C9         -15.8420   -17.8840    -6.1630 ca         1 LBJ      -0.174000
     13 N1         -17.8150   -17.8790    -3.1870 na         1 LBJ      -0.161400
     14 N2         -20.7570   -19.5710    -4.7450 n7         1 LBJ      -0.787200
     15 O1         -13.6820   -16.8950    -6.6390 os         1 LBJ      -0.321900
     16 H1         -12.8480   -17.0440    -8.4650 h1         1 LBJ       0.037367
     17 H2         -13.8200   -18.4550    -8.0150 h1         1 LBJ       0.037367
     18 H3         -14.6170   -16.9450    -8.5000 h1         1 LBJ       0.037367
     19 H8         -19.1720   -18.8440    -7.0870 hc         1 LBJ       0.048700
     20 H10        -20.6080   -20.6880    -6.4940 h1         1 LBJ       0.055200
     21 H11        -19.5550   -21.1980    -5.1880 h1         1 LBJ       0.055200
     22 H14        -20.5690   -18.4040    -3.0300 h1         1 LBJ       0.059700
     23 H13        -19.8550   -19.9970    -2.9080 h1         1 LBJ       0.059700
     24 H4         -13.6910   -16.0750    -4.2560 ha         1 LBJ       0.143000
     25 H5         -15.4440   -16.4140    -2.5540 ha         1 LBJ       0.133000
     26 H7         -15.9650   -18.2950    -7.1570 ha         1 LBJ       0.137000
     27 H6         -17.9910   -17.6230    -2.2290 hn         1 LBJ       0.299700
     28 H12        -21.1330   -18.7500    -5.2040 hn         1 LBJ       0.354800
     29 H9         -18.1010   -20.2000    -6.8140 hc         1 LBJ       0.048700
@<TRIPOS>BOND
     1     1    15 1   
     2     1    16 1   
     3     1    17 1   
     4     1    18 1   
     5     2     3 1   
     6     2    10 1   
     7     2    19 1   
     8     2    29 1   
     9     3    14 1   
    10     3    20 1   
    11     3    21 1   
    12     4     9 1   
    13     4    14 1   
    14     4    22 1   
    15     4    23 1   
    16     5     6 ar  
    17     5    12 ar  
    18     5    15 1   
    19     6     7 ar  
    20     6    24 1   
    21     7     8 ar  
    22     7    25 1   
    23     8    11 ar  
    24     8    13 1   
    25     9    10 2   
    26     9    13 1   
    27    10    11 1   
    28    11    12 ar  
    29    12    26 1   
    30    13    27 1   
    31    14    28 1   
@<TRIPOS>SUBSTRUCTURE
     1 LBJ         1 TEMP              0 ****  ****    0 ROOT
