@<TRIPOS>MOLECULE
LBJ
   29    31     1     0     0
SMALL
No Charge or Current Charge


@<TRIPOS>ATOM
      1 C1         -13.7140   -17.4080    -8.0420 c3         1 LBJ       0.149900
      2 C10        -18.7800   -19.4970    -6.2840 c6         1 LBJ      -0.035200
      3 C11        -19.9810   -20.3310    -5.7500 c6         1 LBJ       0.148800
      4 C12        -20.0380   -19.2220    -3.5380 c6         1 LBJ       0.213000
      5 C2         -14.7020   -17.1260    -5.7980 ca         1 LBJ       0.111100
      6 C3         -14.5720   -16.5810    -4.4970 ca         1 LBJ      -0.118000
      7 C4         -15.5790   -16.7730    -3.5250 ca         1 LBJ      -0.093000
      8 C5         -16.7050   -17.5190    -3.8940 ca         1 LBJ      -0.077200
      9 C6         -18.7070   -18.6150    -3.9240 cc         1 LBJ      -0.098300
     10 C7         -18.0970   -18.7410    -5.1640 cd         1 LBJ      -0.153400
     11 C8         -16.8320   -18.0480    -5.1490 ca         1 LBJ      -0.048800
     12 C9         -15.8560   -17.8780    -6.1390 ca         1 LBJ      -0.156000
     13 N1         -17.8210   -17.8510    -3.1390 na         1 LBJ      -0.211700
     14 N2         -20.7970   -19.5570    -4.7740 n7         1 LBJ      -0.842400
     15 O1         -13.6790   -16.8980    -6.6970 os         1 LBJ      -0.345100
     16 H1         -12.8070   -17.1130    -8.5840 h1         1 LBJ       0.037367
     17 H2         -13.7690   -18.5040    -8.0420 h1         1 LBJ       0.037367
     18 H3         -14.5800   -17.0120    -8.5870 h1         1 LBJ       0.037367
     19 H8         -19.1400   -18.7860    -7.0400 hc         1 LBJ       0.048700
     20 H10        -20.6080   -20.6470    -6.5970 h1         1 LBJ       0.055200
     21 H11        -19.6030   -21.2440    -5.2650 h1         1 LBJ       0.055200
     22 H14        -20.6230   -18.5260    -2.9170 h1         1 LBJ       0.059700
     23 H13        -19.8750   -20.1360    -2.9470 h1         1 LBJ       0.059700
     24 H4         -13.6850   -16.0060    -4.2450 ha         1 LBJ       0.125000
     25 H5         -15.4810   -16.3550    -2.5260 ha         1 LBJ       0.115000
     26 H7         -15.9990   -18.3150    -7.1220 ha         1 LBJ       0.119000
     27 H6         -17.9710   -17.5860    -2.1710 hn         1 LBJ       0.350000
     28 H12        -21.0590   -18.6720    -5.2250 hn         1 LBJ       0.410000
     29 H9         -18.0700   -20.1600    -6.7970 hc         1 LBJ       0.048700
@<TRIPOS>BOND
     1     1    15 1   
     2     1    16 1   
     3     1    17 1   
     4     1    18 1   
     5     2     3 1   
     6     2    10 1   
     7     2    19 1   
     8     2    29 1   
     9     3    14 1   
    10     3    20 1   
    11     3    21 1   
    12     4     9 1   
    13     4    14 1   
    14     4    22 1   
    15     4    23 1   
    16     5     6 ar  
    17     5    12 ar  
    18     5    15 1   
    19     6     7 ar  
    20     6    24 1   
    21     7     8 ar  
    22     7    25 1   
    23     8    11 ar  
    24     8    13 1   
    25     9    10 2   
    26     9    13 1   
    27    10    11 1   
    28    11    12 ar  
    29    12    26 1   
    30    13    27 1   
    31    14    28 1   
@<TRIPOS>SUBSTRUCTURE
     1 LBJ         1 TEMP              0 ****  ****    0 ROOT
