@<TRIPOS>MOLECULE
LBK
   42    44     1     0     0
SMALL
No Charge or Current Charge


@<TRIPOS>ATOM
      1 C4         -51.4140    20.5810   -45.0440 ca         1 LBK      -0.153000
      2 C5         -50.8710    22.4730   -47.0540 ca         1 LBK      -0.187000
      3 C10        -50.3410    21.1690   -47.1600 ca         1 LBK       0.155100
      4 C15        -55.5430    21.4960   -42.6130 ca         1 LBK      -0.091300
      5 C17        -50.3030    17.9060   -45.3100 c3         1 LBK       0.144900
      6 C20        -55.8960    20.3050   -43.2860 ca         1 LBK      -0.095000
      7 C21        -57.6640    22.4870   -43.3170 ca         1 LBK      -0.110500
      8 C22        -57.1220    20.2070   -43.9660 ca         1 LBK      -0.110500
      9 C1         -51.9410    21.8920   -44.9440 ca         1 LBK      -0.175000
     10 C11        -52.9250    24.3910   -44.8060 ca         1 LBK       0.166900
     11 C12        -54.2080    21.6190   -41.8710 c3         1 LBK       0.292800
     12 C16        -54.0730    20.5840   -40.7380 c3         1 LBK      -0.107100
     13 C18        -49.2210    21.6830   -49.3100 c3         1 LBK       0.142900
     14 C19        -56.4380    22.5860   -42.6370 ca         1 LBK      -0.095000
     15 C2         -51.6680    22.8420   -45.9580 ca         1 LBK       0.068000
     16 C23        -58.0080    21.2980   -43.9810 ca         1 LBK      -0.107000
     17 C3         -52.7520    22.3150   -43.8600 ca         1 LBK       0.406900
     18 C9         -50.6130    20.2170   -46.1500 ca         1 LBK       0.107100
     19 N6         -52.1670    24.0930   -45.8780 nb         1 LBK      -0.216000
     20 N7         -53.0860    21.4640   -42.8070 nu         1 LBK      -0.930100
     21 N8         -53.2420    23.5660   -43.7930 nb         1 LBK      -0.283000
     22 O13        -50.0810    18.9440   -46.2810 os         1 LBK      -0.318100
     23 O14        -49.5530    20.7870   -48.2350 os         1 LBK      -0.318100
     24 H25        -51.6260    19.8540   -44.2680 ha         1 LBK       0.110000
     25 H26        -50.6750    23.2190   -47.8190 ha         1 LBK       0.141000
     26 H32        -49.7910    16.9850   -45.6150 h1         1 LBK       0.040033
     27 H33        -49.9140    18.2010   -44.3270 h1         1 LBK       0.040033
     28 H34        -51.3740    17.6830   -45.2150 h1         1 LBK       0.040033
     29 H39        -55.2160    19.4560   -43.2880 ha         1 LBK       0.109500
     30 H40        -58.3480    23.3330   -43.3300 ha         1 LBK       0.111500
     31 H41        -57.3850    19.2870   -44.4820 ha         1 LBK       0.111500
     32 H28        -53.3210    25.4040   -44.7540 h5         1 LBK       0.041100
     33 H24        -54.1570    22.6140   -41.4040 h1         1 LBK       0.079700
     34 H31        -54.9020    20.6890   -40.0290 hc         1 LBK       0.045367
     35 H29        -54.0830    19.5590   -41.1270 hc         1 LBK       0.045367
     36 H30        -53.1360    20.7350   -40.1890 hc         1 LBK       0.045367
     37 H35        -48.5910    21.1720   -50.0490 h1         1 LBK       0.045033
     38 H36        -50.1280    22.0320   -49.8210 h1         1 LBK       0.045033
     39 H37        -48.6680    22.5530   -48.9360 h1         1 LBK       0.045033
     40 H38        -56.1830    23.5140   -42.1300 ha         1 LBK       0.109500
     41 H42        -58.9570    21.2220   -44.5070 ha         1 LBK       0.112000
     42 H27        -52.6790    20.5360   -42.8670 hn         1 LBK       0.493000
@<TRIPOS>BOND
     1     1     9 ar  
     2     1    18 ar  
     3     1    24 1   
     4     2     3 ar  
     5     2    15 ar  
     6     2    25 1   
     7     3    18 ar  
     8     3    23 1   
     9     4     6 ar  
    10     4    11 1   
    11     4    14 ar  
    12     5    22 1   
    13     5    26 1   
    14     5    27 1   
    15     5    28 1   
    16     6     8 ar  
    17     6    29 1   
    18     7    14 ar  
    19     7    16 ar  
    20     7    30 1   
    21     8    16 ar  
    22     8    31 1   
    23     9    15 ar  
    24     9    17 ar  
    25    10    19 ar  
    26    10    21 ar  
    27    10    32 1   
    28    11    12 1   
    29    11    20 1   
    30    11    33 1   
    31    12    34 1   
    32    12    35 1   
    33    12    36 1   
    34    13    23 1   
    35    13    37 1   
    36    13    38 1   
    37    13    39 1   
    38    14    40 1   
    39    15    19 ar  
    40    16    41 1   
    41    17    20 1   
    42    17    21 ar  
    43    18    22 1   
    44    20    42 1   
@<TRIPOS>SUBSTRUCTURE
     1 LBK         1 TEMP              0 ****  ****    0 ROOT
