@<TRIPOS>MOLECULE
LBK
   42    44     1     0     0
SMALL
bcc


@<TRIPOS>ATOM
      1 C4         -51.3230    20.4540   -45.1590 ca         1 LBK      -0.171000
      2 C5         -50.8020    22.3520   -47.1390 ca         1 LBK      -0.270300
      3 C10        -50.1590    21.1410   -47.1670 ca         1 LBK       0.155100
      4 C15        -55.6550    21.5990   -42.6220 ca         1 LBK      -0.091300
      5 C17        -49.9260    18.0230   -45.2970 c3         1 LBK       0.121700
      6 C20        -56.1060    20.5880   -43.4650 ca         1 LBK      -0.113000
      7 C21        -57.8730    22.5560   -42.6360 ca         1 LBK      -0.128500
      8 C22        -57.4270    20.5610   -43.8920 ca         1 LBK      -0.128500
      9 C1         -51.9880    21.7000   -45.1240 ca         1 LBK      -0.305600
     10 C11        -53.1730    24.0970   -45.1590 ca         1 LBK       0.692900
     11 C12        -54.2360    21.6030   -42.0930 c3         1 LBK       0.292800
     12 C16        -54.0910    20.6200   -40.9360 c3         1 LBK      -0.107100
     13 C18        -48.9280    21.6780   -49.1100 c3         1 LBK       0.119700
     14 C19        -56.5500    22.5820   -42.2150 ca         1 LBK      -0.113000
     15 C2         -51.7270    22.6550   -46.1180 ca         1 LBK       0.461600
     16 C23        -58.3160    21.5450   -43.4780 ca         1 LBK      -0.125000
     17 C3         -52.9370    22.0880   -44.1200 ca         1 LBK       0.735200
     18 C9         -50.4250    20.1690   -46.1520 ca         1 LBK       0.107100
     19 N6         -52.3350    23.8720   -46.1320 nb         1 LBK      -0.742000
     20 N7         -53.2620    21.2660   -43.1110 nu         1 LBK      -0.874900
     21 N8         -53.5110    23.2790   -44.1580 nb         1 LBK      -0.809000
     22 O13        -49.7380    19.0240   -46.2780 os         1 LBK      -0.294900
     23 O14        -49.2670    20.7620   -48.0860 os         1 LBK      -0.294900
     24 H25        -51.5120    19.7130   -44.3940 ha         1 LBK       0.128000
     25 H26        -50.6210    23.1080   -47.8910 ha         1 LBK       0.159000
     26 H32        -49.2690    17.2010   -45.5650 h1         1 LBK       0.040033
     27 H33        -49.6610    18.3790   -44.2980 h1         1 LBK       0.040033
     28 H34        -50.9570    17.6600   -45.2790 h1         1 LBK       0.040033
     29 H39        -55.4240    19.8160   -43.8020 ha         1 LBK       0.127500
     30 H40        -58.5570    23.3310   -42.3110 ha         1 LBK       0.129500
     31 H41        -57.7620    19.7680   -44.5480 ha         1 LBK       0.129500
     32 H28        -53.6650    25.0660   -45.1520 h5         1 LBK       0.041100
     33 H24        -54.0140    22.6080   -41.7270 h1         1 LBK       0.079700
     34 H31        -54.7950    20.8690   -40.1440 hc         1 LBK       0.045367
     35 H29        -54.2990    19.5990   -41.2610 hc         1 LBK       0.045367
     36 H30        -53.0840    20.6540   -40.5200 hc         1 LBK       0.045367
     37 H35        -48.1870    21.1830   -49.7320 h1         1 LBK       0.045033
     38 H36        -49.7930    21.9350   -49.7260 h1         1 LBK       0.045033
     39 H37        -48.4960    22.5970   -48.7040 h1         1 LBK       0.045033
     40 H38        -56.2080    23.3810   -41.5670 ha         1 LBK       0.127500
     41 H42        -59.3460    21.5240   -43.8120 ha         1 LBK       0.130000
     42 H27        -52.8610    20.3450   -43.0770 hn         1 LBK       0.437800
@<TRIPOS>BOND
     1     1     9 ar  
     2     1    18 ar  
     3     1    24 1   
     4     2     3 ar  
     5     2    15 ar  
     6     2    25 1   
     7     3    18 ar  
     8     3    23 1   
     9     4     6 ar  
    10     4    11 1   
    11     4    14 ar  
    12     5    22 1   
    13     5    26 1   
    14     5    27 1   
    15     5    28 1   
    16     6     8 ar  
    17     6    29 1   
    18     7    14 ar  
    19     7    16 ar  
    20     7    30 1   
    21     8    16 ar  
    22     8    31 1   
    23     9    15 ar  
    24     9    17 ar  
    25    10    19 ar  
    26    10    21 ar  
    27    10    32 1   
    28    11    12 1   
    29    11    20 1   
    30    11    33 1   
    31    12    34 1   
    32    12    35 1   
    33    12    36 1   
    34    13    23 1   
    35    13    37 1   
    36    13    38 1   
    37    13    39 1   
    38    14    40 1   
    39    15    19 ar  
    40    16    41 1   
    41    17    20 1   
    42    17    21 ar  
    43    18    22 1   
    44    20    42 1   
@<TRIPOS>SUBSTRUCTURE
     1 LBK         1 TEMP              0 ****  ****    0 ROOT
