@<TRIPOS>MOLECULE
LBL
   45    45     1     0     0
SMALL
abcg2


@<TRIPOS>ATOM
      1 C1         -18.0420     6.7130    13.5650 c          1 LBL       0.539900
      2 C10        -11.8550     4.5280    14.0570 c6         1 LBL       0.118300
      3 C11        -15.5230     5.4050    15.6850 c3         1 LBL       0.150300
      4 C12        -15.5110     4.0590    16.4060 c3         1 LBL       0.141600
      5 C2         -17.9370     5.2050    13.6910 c3         1 LBL       0.006300
      6 C3         -16.5160     4.6710    13.3970 c3         1 LBL       0.184300
      7 C4         -15.3590     5.3430    14.1630 c3         1 LBL       0.163300
      8 C5         -13.0460     5.3040    13.4910 c6         1 LBL       0.372300
      9 C6         -11.8190     6.0180    11.6160 c6         1 LBL       0.184300
     10 C7         -11.9310     6.1590    10.1130 c3         1 LBL       0.172600
     11 C8         -10.5550     5.2800    12.0440 c6         1 LBL       0.145300
     12 C9         -10.5580     5.1560    13.5660 c6         1 LBL       0.139300
     13 O1         -17.5380     7.3470    12.6710 o          1 LBL      -0.504100
     14 O10        -14.5150     6.2680    16.1600 oh         1 LBL      -0.714000
     15 O2         -18.3840     4.7670    14.9450 oh         1 LBL      -0.654000
     16 O3         -16.2760     4.7170    12.0150 oh         1 LBL      -0.687000
     17 O4         -14.1940     4.6170    13.8270 os         1 LBL      -0.428000
     18 O5         -12.9750     5.3590    12.0890 os         1 LBL      -0.452000
     19 O6         -13.0020     7.0260     9.8240 oh         1 LBL      -0.717000
     20 O7         -10.5170     4.0240    11.4130 oh         1 LBL      -0.708000
     21 O8          -9.4270     4.4050    13.9380 oh         1 LBL      -0.672000
     22 O9         -11.8310     4.5540    15.4580 oh         1 LBL      -0.752000
     23 H1         -18.6360     7.2070    14.3570 h4         1 LBL      -0.005800
     24 H16        -11.9190     3.4980    13.6720 h1         1 LBL       0.071700
     25 H18        -16.5120     5.8320    15.8940 h1         1 LBL       0.046700
     26 H20        -15.8210     4.2420    17.4420 h1         1 LBL       0.029700
     27 H21        -16.2720     3.4060    15.9670 h1         1 LBL       0.029700
     28 H2         -18.5650     4.7920    12.8870 h1         1 LBL       0.073700
     29 H4         -16.5350     3.6090    13.6620 h1         1 LBL       0.097700
     30 H6         -15.2680     6.3810    13.8120 h1         1 LBL       0.061700
     31 H7         -13.0480     6.3270    13.9040 h2         1 LBL       0.041700
     32 H8         -11.7550     7.0300    12.0480 h1         1 LBL       0.043700
     33 H10        -12.0750     5.1720     9.6580 h1         1 LBL       0.037200
     34 H9         -10.9770     6.5530     9.7390 h1         1 LBL       0.037200
     35 H12         -9.6930     5.8990    11.7500 h1         1 LBL       0.044700
     36 H14        -10.4990     6.1770    13.9760 h1         1 LBL       0.044700
     37 H19        -14.6090     6.3550    17.1140 ho         1 LBL       0.506000
     38 H22        -14.1640     2.8640    17.1440 ho         1 LBL       0.447000
     39 H3         -19.3460     4.7440    14.9490 ho         1 LBL       0.454000
     40 H5         -16.2400     5.6390    11.7350 ho         1 LBL       0.522000
     41 H11        -13.1050     7.0660     8.8690 ho         1 LBL       0.503000
     42 H13         -9.7770     3.5300    11.7830 ho         1 LBL       0.520000
     43 H15         -9.4930     4.2010    14.8770 ho         1 LBL       0.470000
     44 H17        -12.6740     4.2020    15.7980 ho         1 LBL       0.553000
     45 O11        -14.2360     3.4440    16.3810 oh         1 LBL      -0.660000
@<TRIPOS>BOND
     1     1     5 1   
     2     1    13 2   
     3     1    23 1   
     4     2     8 1   
     5     2    12 1   
     6     2    22 1   
     7     2    24 1   
     8     3     4 1   
     9     3     7 1   
    10     3    14 1   
    11     3    25 1   
    12     4    26 1   
    13     4    27 1   
    14     4    45 1   
    15     5     6 1   
    16     5    15 1   
    17     5    28 1   
    18     6     7 1   
    19     6    16 1   
    20     6    29 1   
    21     7    17 1   
    22     7    30 1   
    23     8    17 1   
    24     8    18 1   
    25     8    31 1   
    26     9    10 1   
    27     9    11 1   
    28     9    18 1   
    29     9    32 1   
    30    10    19 1   
    31    10    33 1   
    32    10    34 1   
    33    11    12 1   
    34    11    20 1   
    35    11    35 1   
    36    12    21 1   
    37    12    36 1   
    38    14    37 1   
    39    15    39 1   
    40    16    40 1   
    41    19    41 1   
    42    20    42 1   
    43    21    43 1   
    44    22    44 1   
    45    38    45 1   
@<TRIPOS>SUBSTRUCTURE
     1 LBL         1 TEMP              0 ****  ****    0 ROOT
