@<TRIPOS>MOLECULE
LBL
   45    45     1     0     0
SMALL
No Charge or Current Charge


@<TRIPOS>ATOM
      1 C1         -17.7610     6.2430    12.3680 c          1 LBL       0.539900
      2 C10        -11.8590     4.1380    13.8480 c6         1 LBL       0.118300
      3 C11        -15.4610     5.6220    15.8220 c3         1 LBL       0.150300
      4 C12        -15.2950     4.4310    16.8140 c3         1 LBL       0.141600
      5 C2         -17.9870     5.2180    13.5160 c3         1 LBL       0.006300
      6 C3         -16.6950     4.3980    13.8130 c3         1 LBL       0.184300
      7 C4         -15.4540     5.2280    14.2980 c3         1 LBL       0.163300
      8 C5         -13.0730     5.1010    13.6590 c6         1 LBL       0.372300
      9 C6         -12.0100     6.2660    11.8340 c6         1 LBL       0.184300
     10 C7         -12.2860     6.8050    10.3910 c3         1 LBL       0.172600
     11 C8         -10.7120     5.3910    11.9170 c6         1 LBL       0.145300
     12 C9         -10.5570     4.8540    13.3740 c6         1 LBL       0.139300
     13 O1         -17.9980     7.4440    12.4770 o          1 LBL      -0.504100
     14 O10        -14.4350     6.5830    16.1280 oh         1 LBL      -0.714000
     15 O2         -18.5090     5.8330    14.7260 oh         1 LBL      -0.654000
     16 O3         -16.3190     3.6900    12.6190 oh         1 LBL      -0.687000
     17 O4         -14.2860     4.4170    14.0090 os         1 LBL      -0.428000
     18 O5         -13.1690     5.5150    12.2850 os         1 LBL      -0.452000
     19 O6         -13.4480     7.6570    10.3110 oh         1 LBL      -0.717000
     20 O7         -10.7340     4.2720    11.0060 oh         1 LBL      -0.708000
     21 O8          -9.4440     3.9470    13.4660 oh         1 LBL      -0.672000
     22 O9         -11.7170     3.6790    15.2190 oh         1 LBL      -0.752000
     23 H1         -17.4910     5.8070    11.3810 h4         1 LBL      -0.005800
     24 H16        -12.0360     3.2730    13.1910 h1         1 LBL       0.071700
     25 H18        -16.4320     6.0810    16.0390 h1         1 LBL       0.046700
     26 H20        -15.6350     4.7560    17.8060 h1         1 LBL       0.029700
     27 H21        -15.9370     3.5940    16.5120 h1         1 LBL       0.029700
     28 H2         -18.7290     4.5100    13.1240 h1         1 LBL       0.073700
     29 H4         -16.9440     3.6690    14.5960 h1         1 LBL       0.097700
     30 H6         -15.4220     6.1530    13.7080 h1         1 LBL       0.061700
     31 H7         -12.9330     5.9830    14.2980 h2         1 LBL       0.041700
     32 H8         -11.8860     7.1390    12.4920 h1         1 LBL       0.043700
     33 H10        -12.4060     5.9440     9.7190 h1         1 LBL       0.037200
     34 H9         -11.3950     7.3550    10.0590 h1         1 LBL       0.037200
     35 H12         -9.8470     6.0340    11.6930 h1         1 LBL       0.044700
     36 H14        -10.3840     5.7170    14.0350 h1         1 LBL       0.044700
     37 H19        -13.7580     6.0560    16.6170 ho         1 LBL       0.506000
     38 H22        -13.8610     3.3720    17.6370 ho         1 LBL       0.447000
     39 H3         -19.1240     6.5540    14.4540 ho         1 LBL       0.454000
     40 H5         -15.3340     3.6120    12.6900 ho         1 LBL       0.522000
     41 H11        -13.5750     7.8820     9.3600 ho         1 LBL       0.503000
     42 H13        -10.0770     3.6400    11.3860 ho         1 LBL       0.520000
     43 H15         -9.5840     3.4700    14.3190 ho         1 LBL       0.470000
     44 H17        -12.6170     3.7520    15.6500 ho         1 LBL       0.553000
     45 O11        -13.9160     4.0100    16.8870 oh         1 LBL      -0.660000
@<TRIPOS>BOND
     1     1     5 1   
     2     1    13 2   
     3     1    23 1   
     4     2     8 1   
     5     2    12 1   
     6     2    22 1   
     7     2    24 1   
     8     3     4 1   
     9     3     7 1   
    10     3    14 1   
    11     3    25 1   
    12     4    26 1   
    13     4    27 1   
    14     4    45 1   
    15     5     6 1   
    16     5    15 1   
    17     5    28 1   
    18     6     7 1   
    19     6    16 1   
    20     6    29 1   
    21     7    17 1   
    22     7    30 1   
    23     8    17 1   
    24     8    18 1   
    25     8    31 1   
    26     9    10 1   
    27     9    11 1   
    28     9    18 1   
    29     9    32 1   
    30    10    19 1   
    31    10    33 1   
    32    10    34 1   
    33    11    12 1   
    34    11    20 1   
    35    11    35 1   
    36    12    21 1   
    37    12    36 1   
    38    14    37 1   
    39    15    39 1   
    40    16    40 1   
    41    19    41 1   
    42    20    42 1   
    43    21    43 1   
    44    22    44 1   
    45    38    45 1   
@<TRIPOS>SUBSTRUCTURE
     1 LBL         1 TEMP              0 ****  ****    0 ROOT
