@<TRIPOS>MOLECULE
LBM
  111   118     1     0     0
SMALL
abcg2


@<TRIPOS>ATOM
      1 C11          8.7880    -3.8460    -2.8670 ca         1 LBM      -0.103500
      2 C12          9.1330    -2.8570    -1.9590 ca         1 LBM      -0.096500
      3 C14          5.2010    -0.7300     0.9020 c6         1 LBM       0.157300
      4 C15          4.0870    -0.2690     1.8230 c6         1 LBM       0.211800
      5 C16          3.6690     1.5590     0.2980 c6         1 LBM       0.211800
      6 C17          4.7800     1.0470    -0.5980 c6         1 LBM       0.157300
      7 C19          0.8060     1.2130     0.7890 ca         1 LBM      -0.280000
      8 C20         -0.5080     1.2590     1.2110 ca         1 LBM       0.233100
      9 C22          0.0830    -0.0160     3.1400 ca         1 LBM      -0.004000
     10 C23          1.4010    -0.0530     2.7450 ca         1 LBM      -0.235000
     11 C25         -5.3140    -0.6010     2.9200 ca         1 LBM      -0.388500
     12 C26         -6.1240     0.4800     2.6880 ca         1 LBM       0.139000
     13 C28         -7.0980    -0.6460     0.7290 ca         1 LBM       0.462000
     14 C29         -6.2200    -1.7290     1.0090 ca         1 LBM      -0.245000
     15 C31         -7.9920    -1.8430    -1.2310 c3         1 LBM       0.222800
     16 N            5.7890     0.3810     0.1920 n3         1 LBM      -0.725600
     17 C           11.4300     0.1020     0.7170 c3         1 LBM      -0.083100
     18 O           -3.0830     1.5820     2.6910 o          1 LBM      -0.538100
     19 C1          10.6230    -0.7440     1.7040 c6         1 LBM      -0.046000
     20 C10          7.6600    -4.6160    -2.6280 ca         1 LBM       0.119000
     21 C18          1.7980     0.5520     1.5380 ca         1 LBM       0.397000
     22 C2           9.5040     0.0850     2.3370 c6         1 LBM      -0.066400
     23 C21         -0.9100     0.6290     2.4020 ca         1 LBM      -0.249600
     24 C27         -7.0140     0.4700     1.6170 ca         1 LBM      -0.317200
     25 C3           8.5290     0.6190     1.3010 c6         1 LBM      -0.038200
     26 C30         -5.3650    -1.7160     2.0710 ca         1 LBM       0.070000
     27 C32         -9.1650    -1.6860    -2.1860 c6         1 LBM      -0.079700
     28 C33         -9.1410    -2.8000    -3.2290 c6         1 LBM      -0.112400
     29 C34        -10.3610    -2.7160    -4.1330 c6         1 LBM       0.155100
     30 C35        -11.6510    -1.6790    -2.4810 c6         1 LBM       0.155100
     31 C36        -10.5160    -1.7010    -1.4700 c6         1 LBM      -0.112400
     32 C37         -1.1720     2.4330    -0.7270 ca         1 LBM       0.004100
     33 C38         -1.3040     1.6540    -1.8820 ca         1 LBM       0.355900
     34 C39         -0.7300     3.3930    -3.1670 ca         1 LBM       0.361500
     35 C4           8.1090    -0.4090     0.2880 c2         1 LBM      -0.097400
     36 C40         -0.5630     4.2770    -2.0720 ca         1 LBM      -0.131800
     37 C41         -0.7980     3.7600    -0.8000 ca         1 LBM      -0.025000
     38 C42         -0.1770     5.5380    -2.6130 cc         1 LBM      -0.229200
     39 C43         -0.1260     5.3750    -3.9680 cd         1 LBM      -0.150100
     40 C44         11.5600    -1.2640     2.7910 c3         1 LBM      -0.083100
     41 C5           8.7670    -1.5660     0.1490 ce         1 LBM      -0.070400
     42 C6           9.9740    -1.9250     0.9800 c6         1 LBM      -0.026200
     43 C7           8.3620    -2.6140    -0.8230 ca         1 LBM      -0.046800
     44 C8           7.2410    -3.4110    -0.6060 ca         1 LBM      -0.096500
     45 C9           6.8810    -4.4090    -1.5010 ca         1 LBM      -0.103500
     46 N1           3.0880     0.4820     1.0850 nh         1 LBM      -0.807400
     47 N2          -2.6920    -0.4490     3.5910 ns         1 LBM      -0.594300
     48 N3          -7.9270    -0.7270    -0.3100 nu         1 LBM      -0.928200
     49 N4          -7.8350     1.6340     1.4580 no         1 LBM       0.711200
     50 N5          -1.0890     2.1220    -3.1000 nb         1 LBM      -0.673000
     51 N6          -0.4570     4.0920    -4.3020 na         1 LBM      -0.323400
     52 O1          -4.4750     0.5330     5.1220 o          1 LBM      -0.532500
     53 O2          -4.1820    -1.9480     4.8450 o          1 LBM      -0.532500
     54 O3         -11.5660    -2.7470    -3.3990 os         1 LBM      -0.447000
     55 O4          -8.6430     1.6630     0.5440 o          1 LBM      -0.421500
     56 O5          -7.7060     2.5530     2.2340 o          1 LBM      -0.421500
     57 S           -4.2090    -0.6120     4.2780 sy         1 LBM       1.203300
     58 CL           7.2170    -5.8570    -3.7570 cl         1 LBM      -0.204000
     59 H1           9.3920    -4.0090    -3.7490 ha         1 LBM       0.129500
     60 H2          10.0140    -2.2570    -2.1500 ha         1 LBM       0.118500
     61 H3           6.7270    -0.7730    -1.3310 h1         1 LBM       0.044200
     62 H4           7.2640     0.8910    -1.1520 h1         1 LBM       0.044200
     63 H5           5.9630    -1.2200     1.5120 h1         1 LBM       0.043450
     64 H6           4.7970    -1.4910     0.2120 h1         1 LBM       0.043450
     65 H7           3.6350    -1.1590     2.2570 h1         1 LBM       0.051200
     66 H8           4.5020     0.3310     2.6440 h1         1 LBM       0.051200
     67 H9           4.0770     2.3280     0.9670 h1         1 LBM       0.051200
     68 H10          2.9190     2.0380    -0.3250 h1         1 LBM       0.051200
     69 H11          4.3520     0.3890    -1.3740 h1         1 LBM       0.043450
     70 H12          5.2260     1.9030    -1.1090 h1         1 LBM       0.043450
     71 H13          1.0620     1.6630    -0.1580 ha         1 LBM       0.130000
     72 H14         -0.1690    -0.4730     4.0890 ha         1 LBM       0.117000
     73 H15          2.1150    -0.5320     3.3960 ha         1 LBM       0.120000
     74 H16         -6.0870     1.3420     3.3380 ha         1 LBM       0.179000
     75 H17         -6.2250    -2.5950     0.3650 ha         1 LBM       0.124000
     76 H18         -8.1070    -2.7790    -0.6760 h1         1 LBM       0.053200
     77 H19         -7.0590    -1.9160    -1.8010 h1         1 LBM       0.053200
     78 H21         10.8500     0.3860    -0.1630 hc         1 LBM       0.034200
     79 H22         11.7850     1.0200     1.1910 hc         1 LBM       0.034200
     80 H23         12.3050    -0.4490     0.3660 hc         1 LBM       0.034200
     81 H24          8.9630    -0.5410     3.0550 hc         1 LBM       0.042200
     82 H25          9.9310     0.9160     2.9080 hc         1 LBM       0.042200
     83 H26          7.6350     1.0120     1.7910 hc         1 LBM       0.057700
     84 H27          8.9610     1.4740     0.7680 hc         1 LBM       0.057700
     85 H28         -4.7270    -2.5730     2.2390 ha         1 LBM       0.129000
     86 H29         -9.0600    -0.7270    -2.7120 hc         1 LBM       0.059700
     87 H30         -8.2380    -2.7360    -3.8420 hc         1 LBM       0.054950
     88 H31         -9.1230    -3.7740    -2.7290 hc         1 LBM       0.054950
     89 H32        -10.3070    -1.7970    -4.7360 h1         1 LBM       0.047950
     90 H33        -10.3860    -3.5600    -4.8240 h1         1 LBM       0.047950
     91 H34        -12.6160    -1.7640    -1.9790 h1         1 LBM       0.047950
     92 H35        -11.6420    -0.7160    -3.0150 h1         1 LBM       0.047950
     93 H36        -10.5890    -2.6000    -0.8480 hc         1 LBM       0.054950
     94 H37        -10.6280    -0.8440    -0.8010 hc         1 LBM       0.054950
     95 H38         -1.6020     0.6140    -1.7950 h4         1 LBM       0.031100
     96 H39         -0.6980     4.3640     0.0930 ha         1 LBM       0.142000
     97 H40          0.0410     6.4450    -2.0730 ha         1 LBM       0.213000
     98 H41          0.1250     6.0890    -4.7360 h4         1 LBM       0.218000
     99 H42         12.0520    -0.4380     3.3090 hc         1 LBM       0.034200
    100 H43         11.0190    -1.8510     3.5370 hc         1 LBM       0.034200
    101 H44         12.3400    -1.9020     2.3690 hc         1 LBM       0.034200
    102 H45         10.7160    -2.4220     0.3440 hc         1 LBM       0.050200
    103 H46          9.6740    -2.6870     1.7110 hc         1 LBM       0.050200
    104 H47          6.6300    -3.2570     0.2740 ha         1 LBM       0.118500
    105 H48          6.0050    -5.0150    -1.3180 ha         1 LBM       0.129500
    106 H49         -2.1340    -1.2930     3.5760 hn         1 LBM       0.342500
    107 H50         -8.4990     0.0790    -0.5040 hn         1 LBM       0.537000
    108 H51         -0.5010     3.7240    -5.2390 hn         1 LBM       0.363000
    109 C13          6.9550     0.0040    -0.5870 c3         1 LBM       0.206000
    110 O6          -1.4770     1.8640     0.4860 os         1 LBM      -0.222200
    111 C24         -2.3040     0.6730     2.8760 c          1 LBM       0.663700
@<TRIPOS>BOND
     1     1     2 ar  
     2     1    20 ar  
     3     1    59 1   
     4     2    43 ar  
     5     2    60 1   
     6     3     4 1   
     7     3    16 1   
     8     3    63 1   
     9     3    64 1   
    10     4    46 1   
    11     4    65 1   
    12     4    66 1   
    13     5     6 1   
    14     5    46 1   
    15     5    67 1   
    16     5    68 1   
    17     6    16 1   
    18     6    69 1   
    19     6    70 1   
    20     7     8 ar  
    21     7    21 ar  
    22     7    71 1   
    23     8    23 ar  
    24     8   110 1   
    25     9    10 ar  
    26     9    23 ar  
    27     9    72 1   
    28    10    21 ar  
    29    10    73 1   
    30    11    12 ar  
    31    11    26 ar  
    32    11    57 1   
    33    12    24 ar  
    34    12    74 1   
    35    13    14 ar  
    36    13    24 ar  
    37    13    48 1   
    38    14    26 ar  
    39    14    75 1   
    40    15    27 1   
    41    15    48 1   
    42    15    76 1   
    43    15    77 1   
    44    16   109 1   
    45    17    19 1   
    46    17    78 1   
    47    17    79 1   
    48    17    80 1   
    49    18   111 2   
    50    19    22 1   
    51    19    40 1   
    52    19    42 1   
    53    20    45 ar  
    54    20    58 1   
    55    21    46 1   
    56    22    25 1   
    57    22    81 1   
    58    22    82 1   
    59    23   111 1   
    60    24    49 1   
    61    25    35 1   
    62    25    83 1   
    63    25    84 1   
    64    26    85 1   
    65    27    28 1   
    66    27    31 1   
    67    27    86 1   
    68    28    29 1   
    69    28    87 1   
    70    28    88 1   
    71    29    54 1   
    72    29    89 1   
    73    29    90 1   
    74    30    31 1   
    75    30    54 1   
    76    30    91 1   
    77    30    92 1   
    78    31    93 1   
    79    31    94 1   
    80    32    33 ar  
    81    32    37 ar  
    82    32   110 1   
    83    33    50 ar  
    84    33    95 1   
    85    34    36 ar  
    86    34    50 ar  
    87    34    51 1   
    88    35    41 2   
    89    35   109 1   
    90    36    37 ar  
    91    36    38 1   
    92    37    96 1   
    93    38    39 2   
    94    38    97 1   
    95    39    51 1   
    96    39    98 1   
    97    40    99 1   
    98    40   100 1   
    99    40   101 1   
   100    41    42 1   
   101    41    43 1   
   102    42   102 1   
   103    42   103 1   
   104    43    44 ar  
   105    44    45 ar  
   106    44   104 1   
   107    45   105 1   
   108    47    57 1   
   109    47   106 1   
   110    47   111 1   
   111    48   107 1   
   112    49    55 1   
   113    49    56 1   
   114    51   108 1   
   115    52    57 2   
   116    53    57 2   
   117    61   109 1   
   118    62   109 1   
@<TRIPOS>SUBSTRUCTURE
     1 LBM         1 TEMP              0 ****  ****    0 ROOT
