@<TRIPOS>MOLECULE
LBM
  111   118     1     0     0
SMALL
No Charge or Current Charge


@<TRIPOS>ATOM
      1 C11          6.9110    -3.4660    -3.0150 ca         1 LBM      -0.103500
      2 C12          7.6870    -2.6560    -2.1670 ca         1 LBM      -0.096500
      3 C14          5.1880    -0.5410     0.7730 c6         1 LBM       0.157300
      4 C15          3.9610    -0.1470     1.6570 c6         1 LBM       0.211800
      5 C16          3.7850     1.9930     0.3920 c6         1 LBM       0.211800
      6 C17          5.0120     1.5550    -0.4710 c6         1 LBM       0.157300
      7 C19          0.7590     1.4270     0.4540 ca         1 LBM      -0.280000
      8 C20         -0.5840     1.6000     0.8230 ca         1 LBM       0.233100
      9 C22         -0.0520     0.8310     3.0620 ca         1 LBM      -0.004000
     10 C23          1.2900     0.6780     2.6830 ca         1 LBM      -0.235000
     11 C25         -5.4260     0.0530     2.9800 ca         1 LBM      -0.388500
     12 C26         -6.1200     0.9560     2.1560 ca         1 LBM       0.139000
     13 C28         -7.0550    -0.9120     0.9030 ca         1 LBM       0.462000
     14 C29         -6.3540    -1.8000     1.7310 ca         1 LBM      -0.245000
     15 C31         -7.5330    -2.6130    -0.9430 c3         1 LBM       0.222800
     16 N            5.9460     0.6440     0.2590 n3         1 LBM      -0.725600
     17 C           11.5050    -1.3410     0.2910 c3         1 LBM      -0.083100
     18 O           -3.2150     2.2460     1.9810 o          1 LBM      -0.538100
     19 C1          10.5460    -1.7160     1.4660 c6         1 LBM      -0.046000
     20 C10          5.9690    -4.3530    -2.4680 ca         1 LBM       0.119000
     21 C18          1.7050     0.9760     1.3770 ca         1 LBM       0.397000
     22 C2           9.9170    -0.4540     2.1170 c6         1 LBM      -0.066400
     23 C21         -1.0140     1.2930     2.1340 ca         1 LBM      -0.249600
     24 C27         -6.9450     0.4760     1.1160 ca         1 LBM      -0.317200
     25 C3           9.0400     0.3490     1.1260 c6         1 LBM      -0.038200
     26 C30         -5.5410    -1.3290     2.7680 ca         1 LBM       0.070000
     27 C32         -8.5570    -2.7800    -2.1020 c6         1 LBM      -0.079700
     28 C33         -8.1080    -3.8870    -3.0970 c6         1 LBM      -0.112400
     29 C34         -9.1640    -4.0930    -4.2090 c6         1 LBM       0.155100
     30 C35        -10.9610    -3.3370    -2.7760 c6         1 LBM       0.155100
     31 C36         -9.9950    -3.0910    -1.5910 c6         1 LBM      -0.112400
     32 C37         -1.2570     3.0930    -0.9620 ca         1 LBM       0.004100
     33 C38         -1.8680     3.1400    -2.2400 ca         1 LBM       0.355900
     34 C39         -0.9270     5.1930    -2.7130 ca         1 LBM       0.361500
     35 C4           8.1640    -0.5250     0.2230 c2         1 LBM      -0.097400
     36 C40         -0.3120     5.2210    -1.4810 ca         1 LBM      -0.131800
     37 C41         -0.4540     4.1800    -0.5560 ca         1 LBM      -0.025000
     38 C42          0.4290     6.4410    -1.3730 cc         1 LBM      -0.229200
     39 C43          0.2400     7.1270    -2.5610 cd         1 LBM      -0.150100
     40 C44         11.3980    -2.4840     2.5210 c3         1 LBM      -0.083100
     41 C5           8.3390    -1.8720     0.1280 ce         1 LBM      -0.070400
     42 C6           9.3870    -2.6220     0.9640 c6         1 LBM      -0.026200
     43 C7           7.5190    -2.7270    -0.7710 ca         1 LBM      -0.046800
     44 C8           6.5820    -3.6260    -0.2280 ca         1 LBM      -0.096500
     45 C9           5.8050    -4.4360    -1.0750 ca         1 LBM      -0.103500
     46 N1           3.0480     0.8260     0.9760 nh         1 LBM      -0.807400
     47 N2          -2.8510     0.7410     3.6170 ns         1 LBM      -0.594300
     48 N3          -7.8390    -1.4350    -0.1190 nu         1 LBM      -0.928200
     49 N4          -7.6460     1.4680     0.2620 no         1 LBM       0.711200
     50 N5          -1.7080     4.1720    -3.1150 nb         1 LBM      -0.673000
     51 N6          -0.6040     6.3500    -3.3970 na         1 LBM      -0.323400
     52 O1          -4.7640     2.0500     4.5980 o          1 LBM      -0.532500
     53 O2          -4.2780    -0.3510     5.3410 o          1 LBM      -0.532500
     54 O3         -10.4470    -4.3910    -3.6180 os         1 LBM      -0.447000
     55 O4          -8.7380     1.1620    -0.2340 o          1 LBM      -0.421500
     56 O5          -7.1430     2.5920     0.1550 o          1 LBM      -0.421500
     57 S           -4.3740     0.6700     4.2940 sy         1 LBM       1.203300
     58 Cl           4.9970    -5.3650    -3.5280 cl         1 LBM      -0.204000
     59 H1           7.0390    -3.4070    -4.0930 ha         1 LBM       0.129500
     60 H2           8.4180    -1.9720    -2.5920 ha         1 LBM       0.118500
     61 H3           6.7980    -0.2890    -1.4440 h1         1 LBM       0.044200
     62 H4           7.6070     1.1840    -0.9400 h1         1 LBM       0.044200
     63 H5           5.8440    -1.1860     1.3740 h1         1 LBM       0.043450
     64 H6           4.8270    -1.1490    -0.0700 h1         1 LBM       0.043450
     65 H7           3.4140    -1.0660     1.9130 h1         1 LBM       0.051200
     66 H8           4.3330     0.2870     2.5970 h1         1 LBM       0.051200
     67 H9           4.1420     2.6450     1.2030 h1         1 LBM       0.051200
     68 H10          3.1210     2.6010    -0.2390 h1         1 LBM       0.051200
     69 H11          4.6360     1.0580    -1.3780 h1         1 LBM       0.043450
     70 H12          5.5440     2.4600    -0.8020 h1         1 LBM       0.043450
     71 H13          1.0650     1.6290    -0.5670 ha         1 LBM       0.130000
     72 H14         -0.3220     0.6100     4.0930 ha         1 LBM       0.117000
     73 H15          2.0080     0.3390     3.4230 ha         1 LBM       0.120000
     74 H16         -6.0190     2.0300     2.3250 ha         1 LBM       0.179000
     75 H17         -6.4410    -2.8700     1.5790 ha         1 LBM       0.124000
     76 H18         -7.5340    -3.5250    -0.3320 h1         1 LBM       0.053200
     77 H19         -6.5290    -2.5020    -1.3790 h1         1 LBM       0.053200
     78 H21         10.9750    -0.8530    -0.5350 hc         1 LBM       0.034200
     79 H22         12.2950    -0.6580     0.6240 hc         1 LBM       0.034200
     80 H23         11.9930    -2.2310    -0.1250 hc         1 LBM       0.034200
     81 H24          9.2960    -0.7580     2.9720 hc         1 LBM       0.042200
     82 H25         10.7000     0.1990     2.5270 hc         1 LBM       0.042200
     83 H26          8.4090     1.0460     1.6950 hc         1 LBM       0.057700
     84 H27          9.6840     0.9760     0.4950 hc         1 LBM       0.057700
     85 H28         -5.0050    -2.0400     3.3970 ha         1 LBM       0.129000
     86 H29         -8.5740    -1.8240    -2.6470 hc         1 LBM       0.059700
     87 H30         -7.1430    -3.6230    -3.5510 hc         1 LBM       0.054950
     88 H31         -7.9540    -4.8360    -2.5630 hc         1 LBM       0.054950
     89 H32         -9.2490    -3.1880    -4.8290 h1         1 LBM       0.047950
     90 H33         -8.8670    -4.9280    -4.8600 h1         1 LBM       0.047950
     91 H34        -11.9510    -3.6290    -2.3990 h1         1 LBM       0.047950
     92 H35        -11.0780    -2.4190    -3.3710 h1         1 LBM       0.047950
     93 H36         -9.9820    -3.9780    -0.9430 hc         1 LBM       0.054950
     94 H37        -10.3760    -2.2620    -0.9790 hc         1 LBM       0.054950
     95 H38         -2.5020     2.3210    -2.5760 h4         1 LBM       0.031100
     96 H39          0.0270     4.2180     0.4180 ha         1 LBM       0.142000
     97 H40          1.0300     6.7800    -0.5290 ha         1 LBM       0.213000
     98 H41          0.6360     8.0930    -2.8710 h4         1 LBM       0.218000
     99 H42         12.2260    -1.8680     2.8930 hc         1 LBM       0.034200
    100 H43         10.7930    -2.7760     3.3890 hc         1 LBM       0.034200
    101 H44         11.8300    -3.3990     2.1000 hc         1 LBM       0.034200
    102 H45          9.7940    -3.4620     0.3830 hc         1 LBM       0.050200
    103 H46          8.8750    -3.0740     1.8240 hc         1 LBM       0.050200
    104 H47          6.4520    -3.6920     0.8500 ha         1 LBM       0.118500
    105 H48          5.0780    -5.1250    -0.6540 ha         1 LBM       0.129500
    106 H49         -2.2300     0.0660     4.0240 hn         1 LBM       0.342500
    107 H50         -8.4690    -0.7450    -0.5350 hn         1 LBM       0.537000
    108 H51         -0.9250     6.5850    -4.3280 hn         1 LBM       0.363000
    109 C13          7.1250     0.2730    -0.5600 c3         1 LBM       0.206000
    110 O6          -1.4830     2.0090    -0.1370 os         1 LBM      -0.222200
    111 C24         -2.4570     1.4720     2.5420 c          1 LBM       0.663700
@<TRIPOS>BOND
     1     1     2 ar  
     2     1    20 ar  
     3     1    59 1   
     4     2    43 ar  
     5     2    60 1   
     6     3     4 1   
     7     3    16 1   
     8     3    63 1   
     9     3    64 1   
    10     4    46 1   
    11     4    65 1   
    12     4    66 1   
    13     5     6 1   
    14     5    46 1   
    15     5    67 1   
    16     5    68 1   
    17     6    16 1   
    18     6    69 1   
    19     6    70 1   
    20     7     8 ar  
    21     7    21 ar  
    22     7    71 1   
    23     8    23 ar  
    24     8   110 1   
    25     9    10 ar  
    26     9    23 ar  
    27     9    72 1   
    28    10    21 ar  
    29    10    73 1   
    30    11    12 ar  
    31    11    26 ar  
    32    11    57 1   
    33    12    24 ar  
    34    12    74 1   
    35    13    14 ar  
    36    13    24 ar  
    37    13    48 1   
    38    14    26 ar  
    39    14    75 1   
    40    15    27 1   
    41    15    48 1   
    42    15    76 1   
    43    15    77 1   
    44    16   109 1   
    45    17    19 1   
    46    17    78 1   
    47    17    79 1   
    48    17    80 1   
    49    18   111 2   
    50    19    22 1   
    51    19    40 1   
    52    19    42 1   
    53    20    45 ar  
    54    20    58 1   
    55    21    46 1   
    56    22    25 1   
    57    22    81 1   
    58    22    82 1   
    59    23   111 1   
    60    24    49 1   
    61    25    35 1   
    62    25    83 1   
    63    25    84 1   
    64    26    85 1   
    65    27    28 1   
    66    27    31 1   
    67    27    86 1   
    68    28    29 1   
    69    28    87 1   
    70    28    88 1   
    71    29    54 1   
    72    29    89 1   
    73    29    90 1   
    74    30    31 1   
    75    30    54 1   
    76    30    91 1   
    77    30    92 1   
    78    31    93 1   
    79    31    94 1   
    80    32    33 ar  
    81    32    37 ar  
    82    32   110 1   
    83    33    50 ar  
    84    33    95 1   
    85    34    36 ar  
    86    34    50 ar  
    87    34    51 1   
    88    35    41 2   
    89    35   109 1   
    90    36    37 ar  
    91    36    38 1   
    92    37    96 1   
    93    38    39 2   
    94    38    97 1   
    95    39    51 1   
    96    39    98 1   
    97    40    99 1   
    98    40   100 1   
    99    40   101 1   
   100    41    42 1   
   101    41    43 1   
   102    42   102 1   
   103    42   103 1   
   104    43    44 ar  
   105    44    45 ar  
   106    44   104 1   
   107    45   105 1   
   108    47    57 1   
   109    47   106 1   
   110    47   111 1   
   111    48   107 1   
   112    49    55 1   
   113    49    56 1   
   114    51   108 1   
   115    52    57 2   
   116    53    57 2   
   117    61   109 1   
   118    62   109 1   
@<TRIPOS>SUBSTRUCTURE
     1 LBM         1 TEMP              0 ****  ****    0 ROOT
