@<TRIPOS>MOLECULE
LBN
  134   133     1     0     0
SMALL
abcg2


@<TRIPOS>ATOM
      1 C1           0.2770    -6.0550    -1.5240 c3         1 LBN       0.207600
      2 N1          -3.9090    -3.5990     2.7500 n4         1 LBN      -0.487000
      3 P1          -1.4010    -6.0160     0.4780 p5         1 LBN       1.382800
      4 C2           0.7430    -5.1230    -2.6330 c3         1 LBN       0.167300
      5 C3          -0.3680    -4.5480    -3.4810 c3         1 LBN       0.170600
      6 C4         -10.3920     4.1420     0.1060 c3         1 LBN      -0.073400
      7 C5          11.9070     1.0060     1.8240 c2         1 LBN      -0.216200
      8 C6          -2.6360    -3.9930     3.4570 c3         1 LBN       0.084600
      9 O1          -0.2680    -5.3090    -0.4590 os         1 LBN      -0.574400
     10 C7         -11.4030     5.1540    -0.4190 c3         1 LBN      -0.074400
     11 C8          11.9550     2.0510     0.7530 c3         1 LBN      -0.043200
     12 C9          -1.8710    -5.1790     2.9160 c3         1 LBN       0.212600
     13 O2          -1.2380    -4.9040     1.6870 os         1 LBN      -0.573400
     14 C10        -12.1450     5.8960     0.6850 c3         1 LBN      -0.073400
     15 C11         12.4340     3.4040     1.2840 c3         1 LBN      -0.072400
     16 C12         -3.6370    -2.9880     1.4180 c3         1 LBN       0.072233
     17 O3          -2.7660    -5.8790    -0.1320 o          1 LBN      -0.819500
     18 C13        -13.1540     6.9080     0.1570 c3         1 LBN      -0.075400
     19 C14         12.4690     4.4820     0.2090 c3         1 LBN      -0.075400
     20 C15         -4.8120    -4.7710     2.5750 c3         1 LBN       0.072233
     21 O4          -0.9350    -7.3610     0.9420 o          1 LBN      -0.819500
     22 C16        -13.8960     7.6530     1.2580 c3         1 LBN      -0.075400
     23 C17         12.9740     5.8250     0.7190 c3         1 LBN      -0.074400
     24 C18         -4.5910    -2.5840     3.6030 c3         1 LBN       0.072233
     25 C19        -14.9040     8.6650     0.7260 c3         1 LBN      -0.075400
     26 C20         12.9660     6.9150    -0.3460 c3         1 LBN      -0.074400
     27 C21        -15.6410     9.4070     1.8310 c3         1 LBN      -0.088100
     28 C22         13.4820     8.2560     0.1600 c3         1 LBN      -0.075400
     29 C23         13.4620     9.3500    -0.9010 c3         1 LBN      -0.075400
     30 C24         13.9830    10.6850    -0.3870 c3         1 LBN      -0.088100
     31 C25         -2.3920    -3.3780    -3.1700 c          1 LBN       0.604100
     32 O5          -1.2320    -3.7720    -2.6620 os         1 LBN      -0.409100
     33 C26         -3.2360    -2.6850    -2.1380 c3         1 LBN      -0.145400
     34 O6          -2.7200    -3.5820    -4.3130 o          1 LBN      -0.504000
     35 C27         -4.2860    -1.7500    -2.7190 c3         1 LBN      -0.069400
     36 C28         -5.0830    -1.0540    -1.6240 c3         1 LBN      -0.071400
     37 C29         -6.1030    -0.0590    -2.1610 c3         1 LBN      -0.077400
     38 C30         -6.8690     0.6580    -1.0570 c3         1 LBN      -0.072400
     39 C31         -7.8860     1.6640    -1.5830 c3         1 LBN      -0.075400
     40 C32         -8.6350     2.3940    -0.4760 c3         1 LBN      -0.073400
     41 C33         -9.6490     3.4050    -1.0000 c3         1 LBN      -0.075400
     42 O7           1.4880    -4.0210    -2.1070 os         1 LBN      -0.427100
     43 C35          3.3580    -2.9450    -1.1960 c3         1 LBN      -0.136400
     44 O8           3.3280    -5.2650    -1.8490 o          1 LBN      -0.496000
     45 C36          4.7960    -3.1040    -0.7330 c3         1 LBN      -0.068400
     46 C37          5.3680    -1.7990    -0.1920 c3         1 LBN      -0.075400
     47 C38          6.8110    -1.9360     0.2760 c3         1 LBN      -0.075400
     48 C39          7.3910    -0.6380     0.8230 c3         1 LBN      -0.074400
     49 C40          8.8420    -0.7700     1.2640 c3         1 LBN      -0.073400
     50 C41          9.4120     0.5310     1.8320 c3         1 LBN      -0.043200
     51 C42         10.8290     0.3770     2.2910 c2         1 LBN      -0.215200
     52 H1          -0.4430    -6.7530    -1.9690 h1         1 LBN       0.043700
     53 H2           1.1200    -6.6530    -1.1710 h1         1 LBN       0.043700
     54 H3           1.3660    -5.7130    -3.3130 h1         1 LBN       0.062700
     55 H4           0.0510    -3.9330    -4.2820 h1         1 LBN       0.053700
     56 H5          -0.9080    -5.3770    -3.9450 h1         1 LBN       0.053700
     57 H6          -9.6680     4.6540     0.7500 hc         1 LBN       0.035700
     58 H7         -10.9050     3.4150     0.7460 hc         1 LBN       0.035700
     59 H8          12.8660     0.7620     2.2730 ha         1 LBN       0.165000
     60 H9          -2.0070    -3.1030     3.4810 hx         1 LBN       0.080200
     61 H10         -2.9220    -4.2290     4.4820 hx         1 LBN       0.080200
     62 H11        -10.8900     5.8790    -1.0610 hc         1 LBN       0.038700
     63 H12        -12.1280     4.6420    -1.0620 hc         1 LBN       0.038700
     64 H13         12.6390     1.7240    -0.0380 hc         1 LBN       0.044200
     65 H14         10.9780     2.1710     0.2810 hc         1 LBN       0.044200
     66 H15         -1.1130    -5.3930     3.6760 h1         1 LBN       0.056200
     67 H16         -2.5110    -6.0650     2.8790 h1         1 LBN       0.056200
     68 H17        -12.6590     5.1720     1.3270 hc         1 LBN       0.036700
     69 H18        -11.4200     6.4080     1.3280 hc         1 LBN       0.036700
     70 H19         11.7780     3.7240     2.1000 hc         1 LBN       0.039200
     71 H20         -4.5740    -2.6030     1.0240 hx         1 LBN       0.095700
     72 H21         -2.9300    -2.1710     1.5360 hx         1 LBN       0.095700
     73 H22         -3.2420    -3.7420     0.7460 hx         1 LBN       0.095700
     74 H23        -12.6390     7.6300    -0.4860 hc         1 LBN       0.037700
     75 H24        -13.8780     6.3950    -0.4860 hc         1 LBN       0.037700
     76 H25         13.1000     4.1490    -0.6230 hc         1 LBN       0.037200
     77 H26         -5.7700    -4.4190     2.2010 hx         1 LBN       0.095700
     78 H27         -4.3790    -5.4580     1.8540 hx         1 LBN       0.095700
     79 H28         -4.9550    -5.2610     3.5350 hx         1 LBN       0.095700
     80 H30        -14.4120     6.9320     1.9010 hc         1 LBN       0.036700
     81 H31        -13.1720     8.1670     1.9000 hc         1 LBN       0.036700
     82 H32         12.3600     6.1460     1.5690 hc         1 LBN       0.037200
     83 H33         13.9910     5.7060     1.1090 hc         1 LBN       0.037200
     84 H34         -4.8260    -3.0240     4.5680 hx         1 LBN       0.095700
     85 H35         -3.9330    -1.7300     3.7350 hx         1 LBN       0.095700
     86 H36         -5.5060    -2.2680     3.1090 hx         1 LBN       0.095700
     87 H37        -14.3870     9.3850     0.0830 hc         1 LBN       0.036700
     88 H38        -15.6260     8.1510     0.0840 hc         1 LBN       0.036700
     89 H39         13.5700     6.5920    -1.2010 hc         1 LBN       0.037200
     90 H40         11.9460     7.0390    -0.7270 hc         1 LBN       0.037200
     91 H41        -16.1940     8.7150     2.4700 hc         1 LBN       0.031700
     92 H42        -14.9460     9.9560     2.4690 hc         1 LBN       0.031700
     93 H43        -16.3560    10.1240     1.4260 hc         1 LBN       0.031700
     94 H44         12.8830     8.5760     1.0200 hc         1 LBN       0.036700
     95 H45         14.5050     8.1350     0.5330 hc         1 LBN       0.036700
     96 H46         14.0570     9.0300    -1.7620 hc         1 LBN       0.036200
     97 H47         12.4400     9.4760    -1.2720 hc         1 LBN       0.036200
     98 H48         13.9490    11.4540    -1.1590 hc         1 LBN       0.031367
     99 H49         13.3900    11.0400     0.4580 hc         1 LBN       0.031367
    100 H50         15.0180    10.6030    -0.0490 hc         1 LBN       0.031367
    101 H51         -3.7110    -3.4750    -1.5460 hc         1 LBN       0.073700
    102 H52         -2.5840    -2.1490    -1.4440 hc         1 LBN       0.073700
    103 H53         -3.7990    -0.9980    -3.3450 hc         1 LBN       0.057200
    104 H54         -4.9650    -2.3050    -3.3700 hc         1 LBN       0.057200
    105 H55         -5.5980    -1.8030    -1.0130 hc         1 LBN       0.023200
    106 H56         -4.3930    -0.5350    -0.9490 hc         1 LBN       0.023200
    107 H57         -5.5920     0.6800    -2.7870 hc         1 LBN       0.046200
    108 H58         -6.8090    -0.5780    -2.8180 hc         1 LBN       0.046200
    109 H59         -7.3810    -0.0810    -0.4300 hc         1 LBN       0.029200
    110 H60         -6.1580     1.1710    -0.4000 hc         1 LBN       0.029200
    111 H61         -7.3750     2.3960    -2.2180 hc         1 LBN       0.041700
    112 H62         -8.6040     1.1500    -2.2310 hc         1 LBN       0.041700
    113 H63         -9.1470     1.6640     0.1600 hc         1 LBN       0.033700
    114 H64         -7.9150     2.9060     0.1720 hc         1 LBN       0.033700
    115 H65        -10.3720     2.8930    -1.6440 hc         1 LBN       0.039700
    116 H66         -9.1370     4.1320    -1.6400 hc         1 LBN       0.039700
    117 H67          3.2850    -2.1750    -1.9710 hc         1 LBN       0.069200
    118 H68          2.7260    -2.5920    -0.3740 hc         1 LBN       0.069200
    119 H69          4.8530    -3.8720     0.0430 hc         1 LBN       0.054700
    120 H70          5.4160    -3.4550    -1.5620 hc         1 LBN       0.054700
    121 H71          5.3090    -1.0270    -0.9670 hc         1 LBN       0.034700
    122 H72          4.7480    -1.4440     0.6390 hc         1 LBN       0.034700
    123 H73          6.8710    -2.7120     1.0480 hc         1 LBN       0.040700
    124 H74          7.4290    -2.2890    -0.5570 hc         1 LBN       0.040700
    125 H75          7.3150     0.1430     0.0580 hc         1 LBN       0.035200
    126 H76          8.9260    -1.5600     2.0180 hc         1 LBN       0.040700
    127 H77          9.3220     1.3230     1.0850 hc         1 LBN       0.042700
    128 H78          8.7930     0.8400     2.6820 hc         1 LBN       0.042700
    129 H79         10.9750    -0.3510     3.0860 ha         1 LBN       0.165000
    130 H80         13.4310     3.2900     1.7220 hc         1 LBN       0.039200
    131 H81         11.4620     4.6060    -0.2070 hc         1 LBN       0.037200
    132 H82          6.7830    -0.2950     1.6680 hc         1 LBN       0.035200
    133 H83          9.4540    -1.0920     0.4150 hc         1 LBN       0.040700
    134 C34          2.7550    -4.2100    -1.7420 c          1 LBN       0.601100
@<TRIPOS>BOND
     1     1     4 1   
     2     1     9 1   
     3     1    52 1   
     4     1    53 1   
     5     2     8 1   
     6     2    16 1   
     7     2    20 1   
     8     2    24 1   
     9     3     9 1   
    10     3    13 1   
    11     3    17 1   
    12     3    21 1   
    13     4     5 1   
    14     4    42 1   
    15     4    54 1   
    16     5    32 1   
    17     5    55 1   
    18     5    56 1   
    19     6    10 1   
    20     6    41 1   
    21     6    57 1   
    22     6    58 1   
    23     7    11 1   
    24     7    51 2   
    25     7    59 1   
    26     8    12 1   
    27     8    60 1   
    28     8    61 1   
    29    10    14 1   
    30    10    62 1   
    31    10    63 1   
    32    11    15 1   
    33    11    64 1   
    34    11    65 1   
    35    12    13 1   
    36    12    66 1   
    37    12    67 1   
    38    14    18 1   
    39    14    68 1   
    40    14    69 1   
    41    15    19 1   
    42    15    70 1   
    43    15   130 1   
    44    16    71 1   
    45    16    72 1   
    46    16    73 1   
    47    18    22 1   
    48    18    74 1   
    49    18    75 1   
    50    19    23 1   
    51    19    76 1   
    52    19   131 1   
    53    20    77 1   
    54    20    78 1   
    55    20    79 1   
    56    22    25 1   
    57    22    80 1   
    58    22    81 1   
    59    23    26 1   
    60    23    82 1   
    61    23    83 1   
    62    24    84 1   
    63    24    85 1   
    64    24    86 1   
    65    25    27 1   
    66    25    87 1   
    67    25    88 1   
    68    26    28 1   
    69    26    89 1   
    70    26    90 1   
    71    27    91 1   
    72    27    92 1   
    73    27    93 1   
    74    28    29 1   
    75    28    94 1   
    76    28    95 1   
    77    29    30 1   
    78    29    96 1   
    79    29    97 1   
    80    30    98 1   
    81    30    99 1   
    82    30   100 1   
    83    31    32 1   
    84    31    33 1   
    85    31    34 2   
    86    33    35 1   
    87    33   101 1   
    88    33   102 1   
    89    35    36 1   
    90    35   103 1   
    91    35   104 1   
    92    36    37 1   
    93    36   105 1   
    94    36   106 1   
    95    37    38 1   
    96    37   107 1   
    97    37   108 1   
    98    38    39 1   
    99    38   109 1   
   100    38   110 1   
   101    39    40 1   
   102    39   111 1   
   103    39   112 1   
   104    40    41 1   
   105    40   113 1   
   106    40   114 1   
   107    41   115 1   
   108    41   116 1   
   109    42   134 1   
   110    43    45 1   
   111    43   117 1   
   112    43   118 1   
   113    43   134 1   
   114    44   134 2   
   115    45    46 1   
   116    45   119 1   
   117    45   120 1   
   118    46    47 1   
   119    46   121 1   
   120    46   122 1   
   121    47    48 1   
   122    47   123 1   
   123    47   124 1   
   124    48    49 1   
   125    48   125 1   
   126    48   132 1   
   127    49    50 1   
   128    49   126 1   
   129    49   133 1   
   130    50    51 1   
   131    50   127 1   
   132    50   128 1   
   133    51   129 1   
@<TRIPOS>SUBSTRUCTURE
     1 LBN         1 TEMP              0 ****  ****    0 ROOT
