@<TRIPOS>MOLECULE
LBN
  134   133     1     0     0
SMALL
No Charge or Current Charge


@<TRIPOS>ATOM
      1 C1          -0.3390    -6.7380    -0.8590 c3         1 LBN       0.207600
      2 N1          -2.2440    -2.6360     0.8050 n4         1 LBN      -0.487000
      3 P1          -2.6820    -6.7280     0.3260 p5         1 LBN       1.382800
      4 C2           0.7590    -5.7630    -1.4020 c3         1 LBN       0.167300
      5 C3           0.4980    -5.1670    -2.8140 c3         1 LBN       0.170600
      6 C4          -8.7210     3.9780    -0.3430 c3         1 LBN      -0.073400
      7 C5          10.0750     1.6670     2.9520 c2         1 LBN      -0.216200
      8 C6          -1.5430    -3.8470     1.4440 c3         1 LBN       0.084600
      9 O1          -1.5930    -6.0660    -0.6570 os         1 LBN      -0.574400
     10 C7          -8.8390     5.3100     0.4290 c3         1 LBN      -0.074400
     11 C8           9.7470     2.2760     1.6010 c3         1 LBN      -0.043200
     12 C9          -2.3890    -4.8840     2.2250 c3         1 LBN       0.212600
     13 O2          -2.1120    -6.2120     1.7460 os         1 LBN      -0.573400
     14 C10        -10.3030     5.7270     0.6920 c3         1 LBN      -0.073400
     15 C11         10.1260     3.7700     1.5320 c3         1 LBN      -0.072400
     16 C12         -3.2740    -3.1070    -0.2280 c3         1 LBN       0.072233
     17 O3          -4.0520    -6.1990     0.0700 o          1 LBN      -0.819500
     18 C13        -10.4230     7.0550     1.4710 c3         1 LBN      -0.075400
     19 C14          9.8380     4.4080     0.1560 c3         1 LBN      -0.075400
     20 C15         -2.9410    -1.7890     1.8800 c3         1 LBN       0.072233
     21 O4          -2.6500    -8.2170     0.2390 o          1 LBN      -0.819500
     22 C16        -11.8870     7.4810     1.7170 c3         1 LBN      -0.075400
     23 C17         10.2520     5.8950     0.0830 c3         1 LBN      -0.074400
     24 C18         -1.1890    -1.7790     0.0970 c3         1 LBN       0.072233
     25 C19        -12.0080     8.8060     2.5010 c3         1 LBN      -0.075400
     26 C20          9.9760     6.5330    -1.2970 c3         1 LBN      -0.074400
     27 C21        -13.4690     9.2390     2.7330 c3         1 LBN      -0.088100
     28 C22         10.4060     8.0150    -1.3730 c3         1 LBN      -0.075400
     29 C23         10.1330     8.6530    -2.7520 c3         1 LBN      -0.075400
     30 C24         10.5670    10.1300    -2.8300 c3         1 LBN      -0.088100
     31 C25         -1.1500    -3.9200    -4.0520 c          1 LBN       0.604100
     32 O5          -0.7790    -4.5000    -2.8690 os         1 LBN      -0.409100
     33 C26         -2.5810    -3.3860    -3.9940 c3         1 LBN      -0.145400
     34 O6          -0.4300    -3.8310    -5.0380 o          1 LBN      -0.504000
     35 C27         -2.6280    -1.9140    -3.5220 c3         1 LBN      -0.069400
     36 C28         -4.0720    -1.4070    -3.3120 c3         1 LBN      -0.071400
     37 C29         -4.1430    -0.0200    -2.6390 c3         1 LBN      -0.077400
     38 C30         -5.5960     0.4340    -2.3760 c3         1 LBN      -0.072400
     39 C31         -5.6910     1.7930    -1.6490 c3         1 LBN      -0.075400
     40 C32         -7.1490     2.2210    -1.3740 c3         1 LBN      -0.073400
     41 C33         -7.2590     3.5620    -0.6170 c3         1 LBN      -0.075400
     42 O7           1.0220    -4.6760    -0.4780 os         1 LBN      -0.427100
     43 C35          1.9610    -3.6760     1.5010 c3         1 LBN      -0.136400
     44 O8           2.0100    -6.0630     1.0690 o          1 LBN      -0.496000
     45 C36          3.4470    -3.2680     1.3640 c3         1 LBN      -0.068400
     46 C37          3.8220    -2.0080     2.1740 c3         1 LBN      -0.075400
     47 C38          5.3350    -1.7010     2.1180 c3         1 LBN      -0.075400
     48 C39          5.7430    -0.4440     2.9170 c3         1 LBN      -0.074400
     49 C40          7.2740    -0.2310     2.9470 c3         1 LBN      -0.073400
     50 C41          7.7050     1.0390     3.7100 c3         1 LBN      -0.043200
     51 C42          9.2140     1.1370     3.8390 c2         1 LBN      -0.215200
     52 H1          -0.4670    -7.5500    -1.5870 h1         1 LBN       0.043700
     53 H2           0.0080    -7.1990     0.0740 h1         1 LBN       0.043700
     54 H3           1.6750    -6.3600    -1.5100 h1         1 LBN       0.062700
     55 H4           1.3090    -4.4680    -3.0570 h1         1 LBN       0.053700
     56 H5           0.5290    -5.9830    -3.5480 h1         1 LBN       0.053700
     57 H6          -9.2190     3.1860     0.2300 hc         1 LBN       0.035700
     58 H7          -9.2550     4.0660    -1.2980 hc         1 LBN       0.035700
     59 H8          11.1430     1.6700     3.1830 ha         1 LBN       0.165000
     60 H9          -1.0200    -4.3620     0.6400 hx         1 LBN       0.080200
     61 H10         -0.7840    -3.4580     2.1250 hx         1 LBN       0.080200
     62 H11         -8.3120     5.2190     1.3870 hc         1 LBN       0.038700
     63 H12         -8.3360     6.1020    -0.1400 hc         1 LBN       0.038700
     64 H13         10.2930     1.7340     0.8180 hc         1 LBN       0.044200
     65 H14          8.6830     2.1670     1.3600 hc         1 LBN       0.044200
     66 H15         -2.1450    -4.8050     3.2920 h1         1 LBN       0.056200
     67 H16         -3.4550    -4.6470     2.1200 h1         1 LBN       0.056200
     68 H17        -10.8270     5.8240    -0.2680 hc         1 LBN       0.036700
     69 H18        -10.8080     4.9320     1.2550 hc         1 LBN       0.036700
     70 H19          9.5730     4.3150     2.3080 hc         1 LBN       0.039200
     71 H20         -3.7310    -2.2370    -0.7020 hx         1 LBN       0.095700
     72 H21         -2.7710    -3.7210    -0.9790 hx         1 LBN       0.095700
     73 H22         -4.0460    -3.6980     0.2700 hx         1 LBN       0.095700
     74 H23         -9.9100     6.9540     2.4360 hc         1 LBN       0.037700
     75 H24         -9.9060     7.8480     0.9150 hc         1 LBN       0.037700
     76 H25         10.3750     3.8480    -0.6200 hc         1 LBN       0.037200
     77 H26         -3.4050    -0.9200     1.4070 hx         1 LBN       0.095700
     78 H27         -3.7070    -2.3870     2.3760 hx         1 LBN       0.095700
     79 H28         -2.2010    -1.4560     2.6120 hx         1 LBN       0.095700
     80 H30        -12.3980     7.5860     0.7510 hc         1 LBN       0.036700
     81 H31        -12.4060     6.6870     2.2690 hc         1 LBN       0.036700
     82 H32          9.7130     6.4580     0.8550 hc         1 LBN       0.037200
     83 H33         11.3220     5.9820     0.3110 hc         1 LBN       0.037200
     84 H34         -0.4640    -1.4200     0.8310 hx         1 LBN       0.095700
     85 H35         -0.6810    -2.3860    -0.6560 hx         1 LBN       0.095700
     86 H36         -1.6770    -0.9280    -0.3820 hx         1 LBN       0.095700
     87 H37        -11.5090     8.7000     3.4730 hc         1 LBN       0.036700
     88 H38        -11.4830     9.6010     1.9560 hc         1 LBN       0.036700
     89 H39         10.5080     5.9630    -2.0690 hc         1 LBN       0.037200
     90 H40          8.9040     6.4550    -1.5210 hc         1 LBN       0.037200
     91 H41        -13.9850     9.3910     1.7770 hc         1 LBN       0.031700
     92 H42        -14.0140     8.4780     3.3050 hc         1 LBN       0.031700
     93 H43        -13.5040    10.1810     3.2940 hc         1 LBN       0.031700
     94 H44          9.8740     8.5850    -0.6010 hc         1 LBN       0.036700
     95 H45         11.4770     8.0910    -1.1470 hc         1 LBN       0.036700
     96 H46         10.6630     8.0850    -3.5270 hc         1 LBN       0.036200
     97 H47          9.0620     8.5830    -2.9800 hc         1 LBN       0.036200
     98 H48         10.3540    10.5400    -3.8240 hc         1 LBN       0.031367
     99 H49         10.0270    10.7320    -2.0880 hc         1 LBN       0.031367
    100 H50         11.6430    10.2290    -2.6410 hc         1 LBN       0.031367
    101 H51         -3.0410    -3.4620    -4.9870 hc         1 LBN       0.073700
    102 H52         -3.1410    -3.9800    -3.2620 hc         1 LBN       0.073700
    103 H53         -2.0700    -1.8230    -2.5830 hc         1 LBN       0.057200
    104 H54         -2.1180    -1.2760    -4.2550 hc         1 LBN       0.057200
    105 H55         -4.5830    -1.3670    -4.2830 hc         1 LBN       0.023200
    106 H56         -4.6230    -2.1280    -2.6970 hc         1 LBN       0.023200
    107 H57         -3.6000    -0.0530    -1.6860 hc         1 LBN       0.046200
    108 H58         -3.6380     0.7190    -3.2720 hc         1 LBN       0.046200
    109 H59         -6.1310     0.4980    -3.3320 hc         1 LBN       0.029200
    110 H60         -6.1060    -0.3280    -1.7740 hc         1 LBN       0.029200
    111 H61         -5.1470     1.7310    -0.6980 hc         1 LBN       0.041700
    112 H62         -5.1940     2.5630    -2.2530 hc         1 LBN       0.041700
    113 H63         -7.6870     2.3000    -2.3280 hc         1 LBN       0.033700
    114 H64         -7.6480     1.4380    -0.7890 hc         1 LBN       0.033700
    115 H65         -6.7640     4.3480    -1.2010 hc         1 LBN       0.039700
    116 H66         -6.7220     3.4830     0.3360 hc         1 LBN       0.039700
    117 H67          1.3430    -2.8530     1.1250 hc         1 LBN       0.069200
    118 H68          1.7410    -3.8670     2.5580 hc         1 LBN       0.069200
    119 H69          4.0760    -4.1050     1.6940 hc         1 LBN       0.054700
    120 H70          3.6790    -3.0970     0.3040 hc         1 LBN       0.054700
    121 H71          3.2590    -1.1470     1.7920 hc         1 LBN       0.034700
    122 H72          3.5240    -2.1490     3.2210 hc         1 LBN       0.034700
    123 H73          5.8870    -2.5660     2.5080 hc         1 LBN       0.040700
    124 H74          5.6410    -1.5750     1.0710 hc         1 LBN       0.040700
    125 H75          5.2600     0.4370     2.4760 hc         1 LBN       0.035200
    126 H76          7.7450    -1.1050     3.4150 hc         1 LBN       0.040700
    127 H77          7.3010     1.9210     3.1990 hc         1 LBN       0.042700
    128 H78          7.2520     1.0340     4.7090 hc         1 LBN       0.042700
    129 H79          9.5980     0.7240     4.7750 ha         1 LBN       0.165000
    130 H80         11.1930     3.8790     1.7630 hc         1 LBN       0.039200
    131 H81          8.7670     4.3200    -0.0670 hc         1 LBN       0.037200
    132 H82          5.3740    -0.5330     3.9460 hc         1 LBN       0.035200
    133 H83          7.6540    -0.1780     1.9190 hc         1 LBN       0.040700
    134 C34          1.6750    -4.9470     0.6980 c          1 LBN       0.601100
@<TRIPOS>BOND
     1     1     4 1   
     2     1     9 1   
     3     1    52 1   
     4     1    53 1   
     5     2     8 1   
     6     2    16 1   
     7     2    20 1   
     8     2    24 1   
     9     3     9 1   
    10     3    13 1   
    11     3    17 1   
    12     3    21 1   
    13     4     5 1   
    14     4    42 1   
    15     4    54 1   
    16     5    32 1   
    17     5    55 1   
    18     5    56 1   
    19     6    10 1   
    20     6    41 1   
    21     6    57 1   
    22     6    58 1   
    23     7    11 1   
    24     7    51 2   
    25     7    59 1   
    26     8    12 1   
    27     8    60 1   
    28     8    61 1   
    29    10    14 1   
    30    10    62 1   
    31    10    63 1   
    32    11    15 1   
    33    11    64 1   
    34    11    65 1   
    35    12    13 1   
    36    12    66 1   
    37    12    67 1   
    38    14    18 1   
    39    14    68 1   
    40    14    69 1   
    41    15    19 1   
    42    15    70 1   
    43    15   130 1   
    44    16    71 1   
    45    16    72 1   
    46    16    73 1   
    47    18    22 1   
    48    18    74 1   
    49    18    75 1   
    50    19    23 1   
    51    19    76 1   
    52    19   131 1   
    53    20    77 1   
    54    20    78 1   
    55    20    79 1   
    56    22    25 1   
    57    22    80 1   
    58    22    81 1   
    59    23    26 1   
    60    23    82 1   
    61    23    83 1   
    62    24    84 1   
    63    24    85 1   
    64    24    86 1   
    65    25    27 1   
    66    25    87 1   
    67    25    88 1   
    68    26    28 1   
    69    26    89 1   
    70    26    90 1   
    71    27    91 1   
    72    27    92 1   
    73    27    93 1   
    74    28    29 1   
    75    28    94 1   
    76    28    95 1   
    77    29    30 1   
    78    29    96 1   
    79    29    97 1   
    80    30    98 1   
    81    30    99 1   
    82    30   100 1   
    83    31    32 1   
    84    31    33 1   
    85    31    34 2   
    86    33    35 1   
    87    33   101 1   
    88    33   102 1   
    89    35    36 1   
    90    35   103 1   
    91    35   104 1   
    92    36    37 1   
    93    36   105 1   
    94    36   106 1   
    95    37    38 1   
    96    37   107 1   
    97    37   108 1   
    98    38    39 1   
    99    38   109 1   
   100    38   110 1   
   101    39    40 1   
   102    39   111 1   
   103    39   112 1   
   104    40    41 1   
   105    40   113 1   
   106    40   114 1   
   107    41   115 1   
   108    41   116 1   
   109    42   134 1   
   110    43    45 1   
   111    43   117 1   
   112    43   118 1   
   113    43   134 1   
   114    44   134 2   
   115    45    46 1   
   116    45   119 1   
   117    45   120 1   
   118    46    47 1   
   119    46   121 1   
   120    46   122 1   
   121    47    48 1   
   122    47   123 1   
   123    47   124 1   
   124    48    49 1   
   125    48   125 1   
   126    48   132 1   
   127    49    50 1   
   128    49   126 1   
   129    49   133 1   
   130    50    51 1   
   131    50   127 1   
   132    50   128 1   
   133    51   129 1   
@<TRIPOS>SUBSTRUCTURE
     1 LBN         1 TEMP              0 ****  ****    0 ROOT
