@<TRIPOS>MOLECULE
LBO
   38    40     1     0     0
SMALL
abcg2


@<TRIPOS>ATOM
      1 N1           7.5700     0.4100    21.6560 ns         1 LBO      -0.148000
      2 C4           7.2670     1.9110    19.7300 ca         1 LBO       0.321900
      3 C5           7.0820     0.6810    20.3680 ca         1 LBO      -0.073000
      4 C6           8.0220     1.2790    22.6060 c          1 LBO       0.606100
      5 C7           8.5780     0.6040    23.8520 c3         1 LBO      -0.107100
      6 C8          10.0840     0.4980    23.7490 ca         1 LBO      -0.087300
      7 C10         12.2860     1.3740    24.1920 ca         1 LBO      -0.105000
      8 C13         10.6630    -0.5450    23.0300 ca         1 LBO      -0.106000
      9 C15         12.0870    -3.1340    22.0690 cx         1 LBO      -0.122400
     10 O            8.0260     2.4960    22.4750 o          1 LBO      -0.572100
     11 N            6.8210     2.1680    18.4980 nb         1 LBO      -0.643000
     12 C3           6.1720     1.1980    17.8510 ca         1 LBO       0.309900
     13 C2           5.9500    -0.0550    18.4040 ca         1 LBO      -0.140000
     14 C1           6.4030    -0.3440    19.6860 ca         1 LBO      -0.096300
     15 C            6.1750    -1.6900    20.3080 c3         1 LBO      -0.051800
     16 C12         12.0480    -0.6450    22.8730 ca         1 LBO      -0.039300
     17 C14         12.6780    -1.7420    22.0960 cx         1 LBO      -0.089400
     18 C16         12.0270    -2.2820    20.8400 cx         1 LBO      -0.122400
     19 C11         12.8520     0.3310    23.4680 ca         1 LBO      -0.098000
     20 C9          10.9050     1.4640    24.3310 ca         1 LBO      -0.089000
     21 H1           7.5710    -0.5620    21.9240 hn         1 LBO       0.150000
     22 H2           7.7900     2.7050    20.2390 h4         1 LBO       0.053100
     23 H3           8.3000     1.2220    24.7050 hc         1 LBO       0.070200
     24 H4           8.1380    -0.3860    23.9830 hc         1 LBO       0.070200
     25 H5          12.9240     2.1200    24.6490 ha         1 LBO       0.117000
     26 H6          10.0170    -1.2910    22.5840 ha         1 LBO       0.102000
     27 H8          12.7780    -3.9670    22.0840 hc         1 LBO       0.072950
     28 H9           5.8170     1.4280    16.8520 h4         1 LBO       0.022100
     29 H10          5.4200    -0.8110    17.8380 ha         1 LBO       0.120000
     30 H11          7.1210    -2.1980    20.5160 hc         1 LBO       0.045367
     31 H12          5.6370    -1.6010    21.2550 hc         1 LBO       0.045367
     32 H13          5.5930    -2.3240    19.6410 hc         1 LBO       0.045367
     33 H14         13.7600    -1.6940    22.0760 hc         1 LBO       0.082700
     34 H15         12.6740    -2.5290    20.0080 hc         1 LBO       0.072950
     35 H16         11.0710    -1.8560    20.5640 hc         1 LBO       0.072950
     36 H17         13.9290     0.2680    23.3640 ha         1 LBO       0.114000
     37 H18         10.4640     2.2770    24.8940 ha         1 LBO       0.121000
     38 H7          11.1720    -3.2920    22.6230 hc         1 LBO       0.072950
@<TRIPOS>BOND
     1     1     3 1   
     2     1     4 1   
     3     1    21 1   
     4     2     3 ar  
     5     2    11 ar  
     6     2    22 1   
     7     3    14 ar  
     8     4     5 1   
     9     4    10 2   
    10     5     6 1   
    11     5    23 1   
    12     5    24 1   
    13     6     8 ar  
    14     6    20 ar  
    15     7    19 ar  
    16     7    20 ar  
    17     7    25 1   
    18     8    16 ar  
    19     8    26 1   
    20     9    17 1   
    21     9    18 1   
    22     9    27 1   
    23     9    38 1   
    24    11    12 ar  
    25    12    13 ar  
    26    12    28 1   
    27    13    14 ar  
    28    13    29 1   
    29    14    15 1   
    30    15    30 1   
    31    15    31 1   
    32    15    32 1   
    33    16    17 1   
    34    16    19 ar  
    35    17    18 1   
    36    17    33 1   
    37    18    34 1   
    38    18    35 1   
    39    19    36 1   
    40    20    37 1   
@<TRIPOS>SUBSTRUCTURE
     1 LBO         1 TEMP              0 ****  ****    0 ROOT
