@<TRIPOS>MOLECULE
LBO
   38    40     1     0     0
SMALL
No Charge or Current Charge


@<TRIPOS>ATOM
      1 N1           7.5400     0.6330    21.6910 ns         1 LBO      -0.148000
      2 C4           6.5810     2.0680    19.8860 ca         1 LBO       0.321900
      3 C5           6.9520     0.8000    20.4040 ca         1 LBO      -0.073000
      4 C6           8.0880     1.5440    22.5850 c          1 LBO       0.606100
      5 C7           8.6220     0.9130    23.8760 c3         1 LBO      -0.107100
      6 C8          10.1180     0.6390    23.7550 ca         1 LBO      -0.087300
      7 C10         12.4300     1.2560    24.2100 ca         1 LBO      -0.105000
      8 C13         10.5710    -0.4890    23.0420 ca         1 LBO      -0.106000
      9 C15         11.7210    -3.2760    22.1250 cx         1 LBO      -0.122400
     10 O            8.1840     2.7460    22.3640 o          1 LBO      -0.572100
     11 N            6.0160     2.2380    18.6660 nb         1 LBO      -0.643000
     12 C3           5.8000     1.1380    17.9120 ca         1 LBO       0.309900
     13 C2           6.1300    -0.1570    18.3420 ca         1 LBO      -0.140000
     14 C1           6.7150    -0.3430    19.6080 ca         1 LBO      -0.096300
     15 C            7.0840    -1.7460    20.0850 c3         1 LBO      -0.051800
     16 C12         11.9500    -0.7520    22.9040 ca         1 LBO      -0.039300
     17 C14         12.4530    -1.9510    22.1340 cx         1 LBO      -0.089400
     18 C16         11.7750    -2.4370    20.8710 cx         1 LBO      -0.122400
     19 C11         12.8750     0.1310    23.4960 ca         1 LBO      -0.098000
     20 C9          11.0550     1.5120    24.3390 ca         1 LBO      -0.089000
     21 H1           7.5700    -0.3280    22.0070 hn         1 LBO       0.150000
     22 H2           6.7180     2.9820    20.4580 h4         1 LBO       0.053100
     23 H3           8.4310     1.5970    24.7110 hc         1 LBO       0.070200
     24 H4           8.1100    -0.0400    24.0590 hc         1 LBO       0.070200
     25 H5          13.1520     1.9330    24.6620 ha         1 LBO       0.117000
     26 H6           9.8420    -1.1580    22.5920 ha         1 LBO       0.102000
     27 H8          12.3200    -4.1830    22.1540 hc         1 LBO       0.072950
     28 H9           5.3460     1.2990    16.9350 h4         1 LBO       0.022100
     29 H10          5.9290    -1.0030    17.6890 ha         1 LBO       0.120000
     30 H11          8.1550    -1.8180    20.3100 hc         1 LBO       0.045367
     31 H12          6.5280    -2.0130    20.9920 hc         1 LBO       0.045367
     32 H13          6.8580    -2.5050    19.3260 hc         1 LBO       0.045367
     33 H14         13.5390    -2.0150    22.1400 hc         1 LBO       0.082700
     34 H15         12.4110    -2.7820    20.0590 hc         1 LBO       0.072950
     35 H16         10.8630    -1.9400    20.5500 hc         1 LBO       0.072950
     36 H17         13.9430    -0.0520    23.4030 ha         1 LBO       0.114000
     37 H18         10.7210     2.3890    24.8890 ha         1 LBO       0.121000
     38 H7          10.7710    -3.3460    22.6500 hc         1 LBO       0.072950
@<TRIPOS>BOND
     1     1     3 1   
     2     1     4 1   
     3     1    21 1   
     4     2     3 ar  
     5     2    11 ar  
     6     2    22 1   
     7     3    14 ar  
     8     4     5 1   
     9     4    10 2   
    10     5     6 1   
    11     5    23 1   
    12     5    24 1   
    13     6     8 ar  
    14     6    20 ar  
    15     7    19 ar  
    16     7    20 ar  
    17     7    25 1   
    18     8    16 ar  
    19     8    26 1   
    20     9    17 1   
    21     9    18 1   
    22     9    27 1   
    23     9    38 1   
    24    11    12 ar  
    25    12    13 ar  
    26    12    28 1   
    27    13    14 ar  
    28    13    29 1   
    29    14    15 1   
    30    15    30 1   
    31    15    31 1   
    32    15    32 1   
    33    16    17 1   
    34    16    19 ar  
    35    17    18 1   
    36    17    33 1   
    37    18    34 1   
    38    18    35 1   
    39    19    36 1   
    40    20    37 1   
@<TRIPOS>SUBSTRUCTURE
     1 LBO         1 TEMP              0 ****  ****    0 ROOT
