@<TRIPOS>MOLECULE
LBP
   34    33     1     0     0
SMALL
abcg2


@<TRIPOS>ATOM
      1 N            3.5840    -0.5140     1.9420 n8         1 LBP      -1.013200
      2 P           -2.0590     2.2810     0.0340 p5         1 LBP       1.378700
      3 S           -0.6030    -0.1670    -0.2190 s6         1 LBP       0.908500
      4 C1           4.6200    -0.0810    -0.2530 c          1 LBP       0.727000
      5 O1           4.8610    -0.5460    -1.3850 o          1 LBP      -0.753500
      6 CA           3.4420    -0.7270     0.5120 c3         1 LBP       0.029500
      7 CB           2.1350    -0.1850    -0.0970 c3         1 LBP      -0.070400
      8 CD          -1.8800    -1.2580     0.4580 c3         1 LBP      -0.343400
      9 CE          -1.9900    -2.6110    -0.2210 c3         1 LBP      -0.019400
     10 CF          -3.0190    -3.4980     0.4730 c3         1 LBP      -0.078400
     11 CG           0.9030    -0.8750     0.4650 c3         1 LBP      -0.258400
     12 NS          -0.6740     1.2340     0.3550 n2         1 LBP      -0.721700
     13 OS          -0.5690    -0.4080    -1.6820 o          1 LBP      -0.554000
     14 C18         -3.1840    -4.8450    -0.2160 c3         1 LBP      -0.083100
     15 O1T          5.1990     0.8750     0.2980 o          1 LBP      -0.753500
     16 OP1         -2.4510     2.7830     1.4230 o          1 LBP      -0.922833
     17 OP2         -1.5180     3.3760    -0.8830 o          1 LBP      -0.922833
     18 OP3         -3.1170     1.3880    -0.6290 o          1 LBP      -0.922833
     19 HN           3.7270     0.4740     2.1080 hn         1 LBP       0.380000
     20 HNA          2.7390    -0.7770     2.4330 hn         1 LBP       0.380000
     21 HA           3.4700    -1.8070     0.3250 h1         1 LBP       0.022700
     22 HB           2.0670     0.8900     0.0920 hc         1 LBP       0.071200
     23 HBA          2.1610    -0.3280    -1.1790 hc         1 LBP       0.071200
     24 HD          -1.6570    -1.3500     1.5240 h1         1 LBP       0.098200
     25 HDA         -2.7930    -0.6710     0.3470 h1         1 LBP       0.098200
     26 HE          -2.2730    -2.4690    -1.2650 hc         1 LBP       0.032700
     27 HEA         -1.0260    -3.1280    -0.2260 hc         1 LBP       0.032700
     28 HF          -2.7230    -3.6520     1.5140 hc         1 LBP       0.030700
     29 HFA         -3.9820    -2.9790     0.5050 hc         1 LBP       0.030700
     30 HG           0.8220    -0.7650     1.5470 h1         1 LBP       0.048700
     31 HGA          0.9080    -1.9420     0.2270 h1         1 LBP       0.048700
     32 H18         -3.5060    -4.7230    -1.2520 hc         1 LBP       0.009033
     33 H18A        -2.2460    -5.4020    -0.2260 hc         1 LBP       0.009033
     34 H18B        -3.9280    -5.4610     0.2900 hc         1 LBP       0.009033
@<TRIPOS>BOND
     1     1     6 1   
     2     1    19 1   
     3     1    20 1   
     4     2    12 1   
     5     2    16 1   
     6     2    17 1   
     7     2    18 1   
     8     3     8 1   
     9     3    11 1   
    10     3    12 2   
    11     3    13 2   
    12     4     5 1   
    13     4     6 1   
    14     4    15 1   
    15     6     7 1   
    16     6    21 1   
    17     7    11 1   
    18     7    22 1   
    19     7    23 1   
    20     8     9 1   
    21     8    24 1   
    22     8    25 1   
    23     9    10 1   
    24     9    26 1   
    25     9    27 1   
    26    10    14 1   
    27    10    28 1   
    28    10    29 1   
    29    11    30 1   
    30    11    31 1   
    31    14    32 1   
    32    14    33 1   
    33    14    34 1   
@<TRIPOS>SUBSTRUCTURE
     1 LBP         1 TEMP              0 ****  ****    0 ROOT
