@<TRIPOS>MOLECULE
LBP
   34    33     1     0     0
SMALL
No Charge or Current Charge


@<TRIPOS>ATOM
      1 N            3.4360    -0.9750     1.7870 n8         1 LBP      -1.013200
      2 P           -1.5370     2.4660    -0.0770 p5         1 LBP       1.378700
      3 S           -0.8510    -0.0930    -0.1120 s6         1 LBP       0.908500
      4 C1           4.5150     0.1930    -0.3190 c          1 LBP       0.727000
      5 O1           5.1540    -0.3060    -1.2370 o          1 LBP      -0.753500
      6 CA           3.3240    -0.6470     0.3190 c3         1 LBP       0.029500
      7 CB           1.9570     0.0260     0.0240 c3         1 LBP      -0.070400
      8 CD          -2.0180    -1.3010     0.5760 c3         1 LBP      -0.343400
      9 CE          -1.9610    -2.7020    -0.0760 c3         1 LBP      -0.019400
     10 CF          -3.0210    -3.6610     0.5050 c3         1 LBP      -0.078400
     11 CG           0.7280    -0.8490     0.3870 c3         1 LBP      -0.258400
     12 NS          -1.0490     1.2470     0.6330 n2         1 LBP      -0.721700
     13 OS          -0.9530    -0.1800    -1.5760 o          1 LBP      -0.554000
     14 C18         -2.9810    -5.0640    -0.1300 c3         1 LBP      -0.083100
     15 O1T          4.8020     1.2770     0.1770 o          1 LBP      -0.753500
     16 OP1         -1.6910     3.5230     0.9610 o          1 LBP      -0.922833
     17 OP2         -0.5280     2.8720    -1.0940 o          1 LBP      -0.922833
     18 OP3         -2.8380     2.1730    -0.7420 o          1 LBP      -0.922833
     19 HN           3.5270    -0.0960     2.3100 hn         1 LBP       0.380000
     20 HNA          2.5370    -1.3560     2.1020 hn         1 LBP       0.380000
     21 HA           3.3160    -1.6120    -0.2060 h1         1 LBP       0.022700
     22 HB           1.8990     0.9870     0.5520 hc         1 LBP       0.071200
     23 HBA          1.9160     0.2610    -1.0480 hc         1 LBP       0.071200
     24 HD          -1.8050    -1.3630     1.6490 h1         1 LBP       0.098200
     25 HDA         -3.0120    -0.8630     0.4360 h1         1 LBP       0.098200
     26 HE          -2.1180    -2.6120    -1.1580 hc         1 LBP       0.032700
     27 HEA         -0.9690    -3.1450     0.0720 hc         1 LBP       0.032700
     28 HF          -2.8700    -3.7560     1.5880 hc         1 LBP       0.030700
     29 HFA         -4.0190    -3.2310     0.3570 hc         1 LBP       0.030700
     30 HG           0.6720    -1.0160     1.4680 h1         1 LBP       0.048700
     31 HGA          0.7990    -1.8140    -0.1260 h1         1 LBP       0.048700
     32 H18         -3.1640    -5.0070    -1.2100 hc         1 LBP       0.009033
     33 H18A        -2.0050    -5.5360     0.0320 hc         1 LBP       0.009033
     34 H18B        -3.7510    -5.7060     0.3140 hc         1 LBP       0.009033
@<TRIPOS>BOND
     1     1     6 1   
     2     1    19 1   
     3     1    20 1   
     4     2    12 1   
     5     2    16 1   
     6     2    17 1   
     7     2    18 1   
     8     3     8 1   
     9     3    11 1   
    10     3    12 2   
    11     3    13 2   
    12     4     5 1   
    13     4     6 1   
    14     4    15 1   
    15     6     7 1   
    16     6    21 1   
    17     7    11 1   
    18     7    22 1   
    19     7    23 1   
    20     8     9 1   
    21     8    24 1   
    22     8    25 1   
    23     9    10 1   
    24     9    26 1   
    25     9    27 1   
    26    10    14 1   
    27    10    28 1   
    28    10    29 1   
    29    11    30 1   
    30    11    31 1   
    31    14    32 1   
    32    14    33 1   
    33    14    34 1   
@<TRIPOS>SUBSTRUCTURE
     1 LBP         1 TEMP              0 ****  ****    0 ROOT
