@<TRIPOS>MOLECULE
LBQ
   29    30     1     0     0
SMALL
No Charge or Current Charge


@<TRIPOS>ATOM
      1 C4          -2.2670     6.0360    14.3320 c3         1 LBQ       0.197500
      2 C5          -2.1070     7.4290    13.7690 cc         1 LBQ       0.088300
      3 C6          -2.2250     7.8970    12.4880 cd         1 LBQ      -0.159000
      4 N1          -3.6930     5.6860    14.5010 nu         1 LBQ      -0.955200
      5 C7          -1.9760     9.2840    12.5320 cd         1 LBQ      -0.192000
      6 C8          -1.7170     9.6080    13.8360 cc         1 LBQ       0.136900
      7 C9          -3.4020     3.3990    15.2980 ca         1 LBQ      -0.222000
      8 C10         -3.9590     2.2160    15.8110 ca         1 LBQ       0.045000
      9 N           -6.3010    -0.2250    15.3230 n8         1 LBQ      -0.998100
     10 C           -5.3460     2.1360    16.0360 ca         1 LBQ      -0.349500
     11 O           -7.4030     0.8890    17.1900 o          1 LBQ      -0.551500
     12 C1          -6.1700     3.2420    15.7480 ca         1 LBQ       0.045000
     13 C2          -5.6000     4.4190    15.2350 ca         1 LBQ      -0.222000
     14 C3          -4.2210     4.5020    15.0100 ca         1 LBQ       0.388000
     15 O1          -5.0540    -0.1240    17.4440 o          1 LBQ      -0.551500
     16 O2          -1.7950     8.4730    14.6140 os         1 LBQ      -0.226000
     17 H1          -1.7790     5.3260    13.6510 h1         1 LBQ       0.061700
     18 H2          -1.7460     5.9820    15.2990 h1         1 LBQ       0.061700
     19 H3          -2.4660     7.3050    11.6110 ha         1 LBQ       0.143000
     20 H4          -4.3730     6.4290    14.3300 hn         1 LBQ       0.490000
     21 H5          -1.9860     9.9740    11.6940 ha         1 LBQ       0.146000
     22 H6          -1.4790    10.5440    14.3220 h4         1 LBQ       0.056100
     23 H7          -2.3310     3.4460    15.1260 ha         1 LBQ       0.116500
     24 H8          -3.3100     1.3680    16.0280 ha         1 LBQ       0.132500
     25 H9          -7.2870    -0.4580    15.4170 hn         1 LBQ       0.467000
     26 H10         -6.2870     0.5010    14.6120 hn         1 LBQ       0.467000
     27 H11         -7.2450     3.1990    15.9190 ha         1 LBQ       0.132500
     28 H12         -6.2390     5.2690    15.0150 ha         1 LBQ       0.116500
     29 S           -6.0550     0.6320    16.6910 sy         1 LBQ       1.135600
@<TRIPOS>BOND
     1     1     2 1   
     2     1     4 1   
     3     1    17 1   
     4     1    18 1   
     5     2     3 2   
     6     2    16 1   
     7     3     5 1   
     8     3    19 1   
     9     4    14 1   
    10     4    20 1   
    11     5     6 2   
    12     5    21 1   
    13     6    16 1   
    14     6    22 1   
    15     7     8 ar  
    16     7    14 ar  
    17     7    23 1   
    18     8    10 ar  
    19     8    24 1   
    20     9    25 1   
    21     9    26 1   
    22     9    29 1   
    23    10    12 ar  
    24    10    29 1   
    25    11    29 2   
    26    12    13 ar  
    27    12    27 1   
    28    13    14 ar  
    29    13    28 1   
    30    15    29 2   
@<TRIPOS>SUBSTRUCTURE
     1 LBQ         1 TEMP              0 ****  ****    0 ROOT
