@<TRIPOS>MOLECULE
LBQ
   29    30     1     0     0
SMALL
bcc


@<TRIPOS>ATOM
      1 C4          -2.4770     5.9030    13.8910 c3         1 LBQ       0.197500
      2 C5          -2.1550     7.3260    13.6240 cc         1 LBQ       0.198000
      3 C6          -1.9140     8.0080    12.4790 cd         1 LBQ      -0.242300
      4 N1          -3.8360     5.7570    14.3670 nu         1 LBQ      -0.761600
      5 C7          -1.6520     9.3590    12.8640 cd         1 LBQ      -0.275300
      6 C8          -1.7590     9.3880    14.2120 cc         1 LBQ       0.246600
      7 C9          -3.5140     3.5020    15.1950 ca         1 LBQ      -0.240000
      8 C10         -4.0540     2.3670    15.7650 ca         1 LBQ       0.027000
      9 N           -6.0400    -0.2320    15.5260 n8         1 LBQ      -0.887700
     10 C           -5.4170     2.2940    16.0310 ca         1 LBQ      -0.349500
     11 O           -7.4330     1.1550    17.2200 o          1 LBQ      -0.622300
     12 C1          -6.2440     3.3690    15.7170 ca         1 LBQ       0.027000
     13 C2          -5.7110     4.5040    15.1510 ca         1 LBQ      -0.240000
     14 C3          -4.3310     4.6060    14.8860 ca         1 LBQ       0.249600
     15 O1          -5.1380     0.3310    17.7650 o          1 LBQ      -0.622300
     16 O2          -2.0630     8.1620    14.6840 os         1 LBQ      -0.314800
     17 H1          -2.2970     5.3330    12.9720 h1         1 LBQ       0.061700
     18 H2          -1.7900     5.5090    14.6440 h1         1 LBQ       0.061700
     19 H3          -1.9230     7.6010    11.4810 ha         1 LBQ       0.161000
     20 H4          -4.5100     6.4010    13.9830 hn         1 LBQ       0.434800
     21 H5          -1.4170    10.1910    12.2200 ha         1 LBQ       0.164000
     22 H6          -1.6480    10.1730    14.9410 h4         1 LBQ       0.056100
     23 H7          -2.4530     3.5230    14.9920 ha         1 LBQ       0.134500
     24 H8          -3.3990     1.5370    15.9950 ha         1 LBQ       0.150500
     25 H9          -6.1720    -1.1820    15.8610 hn         1 LBQ       0.411800
     26 H10         -6.7290    -0.0190    14.8120 hn         1 LBQ       0.411800
     27 H11         -7.3070     3.3260    15.9130 ha         1 LBQ       0.150500
     28 H12         -6.3610     5.3370    14.9130 ha         1 LBQ       0.134500
     29 S           -6.0750     0.8530    16.7790 sy         1 LBQ       1.277200
@<TRIPOS>BOND
     1     1     2 1   
     2     1     4 1   
     3     1    17 1   
     4     1    18 1   
     5     2     3 2   
     6     2    16 1   
     7     3     5 1   
     8     3    19 1   
     9     4    14 1   
    10     4    20 1   
    11     5     6 2   
    12     5    21 1   
    13     6    16 1   
    14     6    22 1   
    15     7     8 ar  
    16     7    14 ar  
    17     7    23 1   
    18     8    10 ar  
    19     8    24 1   
    20     9    25 1   
    21     9    26 1   
    22     9    29 1   
    23    10    12 ar  
    24    10    29 1   
    25    11    29 2   
    26    12    13 ar  
    27    12    27 1   
    28    13    14 ar  
    29    13    28 1   
    30    15    29 2   
@<TRIPOS>SUBSTRUCTURE
     1 LBQ         1 TEMP              0 ****  ****    0 ROOT
