@<TRIPOS>MOLECULE
LBR
   93    92     1     0     0
SMALL
bcc


@<TRIPOS>ATOM
      1 BR1        -15.0380    -4.1410    -0.5050 br         1 LBR      -0.198400
      2 C33        -13.7350    -3.0550     0.5050 c3         1 LBR       0.014000
      3 CCA        -12.4810    -2.7920    -0.3000 c3         1 LBR      -0.077400
      4 CBA        -11.5000    -1.9460     0.5080 c3         1 LBR      -0.078400
      5 CAA        -10.2110    -1.6570    -0.2520 c3         1 LBR      -0.074400
      6 CA9         -9.2320    -0.8100     0.5510 c3         1 LBR      -0.075400
      7 CA8         -7.9340    -0.5150    -0.1910 c3         1 LBR      -0.073400
      8 CA7         -6.9660     0.3330     0.6230 c3         1 LBR      -0.074400
      9 CA6         -5.6580     0.6320    -0.0990 c3         1 LBR      -0.073400
     10 CA5         -4.7080     1.4880     0.7290 c3         1 LBR      -0.075400
     11 CA4         -3.3890     1.7900     0.0290 c3         1 LBR      -0.075400
     12 CA3         -2.4730     2.6670     0.8710 c3         1 LBR      -0.069400
     13 CA2         -1.1510     2.9560     0.1780 c3         1 LBR      -0.136400
     14 CA1         -0.2480     3.8660     0.9650 c          1 LBR       0.640100
     15 OA1         -0.5160     4.3580     2.0330 o          1 LBR      -0.546000
     16 OG1          0.9010     4.0800     0.3340 os         1 LBR      -0.393900
     17 CG1          1.8320     4.9650     0.9490 c3         1 LBR       0.145400
     18 CG2          3.0530     5.1280     0.0730 c3         1 LBR       0.153100
     19 CG3          2.8050     5.7280    -1.3010 c3         1 LBR       0.121400
     20 O3           2.1220     4.8230    -2.1280 oh         1 LBR      -0.572800
     21 OG2          3.6830     3.8450    -0.0170 os         1 LBR      -0.404900
     22 CB1          5.0030     3.7870    -0.1820 c          1 LBR       0.643100
     23 OB1          5.7030     4.7610    -0.3010 o          1 LBR      -0.546000
     24 CB2          5.4950     2.3650    -0.1750 c3         1 LBR      -0.137400
     25 CB3          6.9890     2.2400    -0.4260 c3         1 LBR      -0.069400
     26 CB4          7.4830     0.8060    -0.2930 c3         1 LBR      -0.075400
     27 CB5          8.9820     0.6820    -0.5370 c3         1 LBR      -0.074400
     28 CB6          9.5290    -0.7150    -0.2730 c3         1 LBR      -0.074400
     29 CB7         11.0340    -0.8190    -0.4920 c3         1 LBR      -0.074400
     30 CB8         11.6070    -2.1800    -0.1150 c3         1 LBR      -0.074400
     31 CB9         13.1170    -2.2700    -0.3000 c3         1 LBR      -0.074400
     32 CAB         13.6960    -3.6100     0.1370 c3         1 LBR      -0.074400
     33 CBB         15.2100    -3.6920    -0.0180 c3         1 LBR      -0.074400
     34 CCB         15.7890    -5.0240     0.4420 c3         1 LBR      -0.075400
     35 C35         17.3030    -5.1110     0.2920 c3         1 LBR      -0.074400
     36 C36         17.8680    -6.4440     0.7630 c3         1 LBR      -0.088100
     37 H1         -14.2500    -2.1320     0.7670 h1         1 LBR       0.069700
     38 H2         -13.5220    -3.6110     1.4170 h1         1 LBR       0.069700
     39 H3         -12.0080    -3.7380    -0.5780 hc         1 LBR       0.055700
     40 H4         -12.7330    -2.2740    -1.2280 hc         1 LBR       0.055700
     41 H5         -11.9770    -1.0010     0.7880 hc         1 LBR       0.039700
     42 H6         -11.2610    -2.4570     1.4460 hc         1 LBR       0.039700
     43 H7          -9.7340    -2.6020    -0.5320 hc         1 LBR       0.039700
     44 H8         -10.4500    -1.1470    -1.1910 hc         1 LBR       0.039700
     45 H9          -9.7120     0.1340     0.8300 hc         1 LBR       0.037700
     46 H10         -9.0010    -1.3200     1.4930 hc         1 LBR       0.037700
     47 H11         -7.4490    -1.4590    -0.4670 hc         1 LBR       0.037700
     48 H12         -8.1610    -0.0060    -1.1340 hc         1 LBR       0.037700
     49 H13         -7.4520     1.2770     0.8950 hc         1 LBR       0.037700
     50 H14         -6.7470    -0.1740     1.5690 hc         1 LBR       0.037700
     51 H15         -5.1640    -0.3100    -0.3630 hc         1 LBR       0.037700
     52 H16         -5.8720     1.1370    -1.0470 hc         1 LBR       0.037700
     53 H17         -5.2040     2.4310     0.9860 hc         1 LBR       0.039700
     54 H18         -4.5040     0.9870     1.6810 hc         1 LBR       0.039700
     55 H19         -2.8820     0.8500    -0.2140 hc         1 LBR       0.037700
     56 H20         -3.5890     2.2830    -0.9290 hc         1 LBR       0.037700
     57 H21         -2.9840     3.6060     1.0980 hc         1 LBR       0.053200
     58 H22         -2.2850     2.1790     1.8320 hc         1 LBR       0.053200
     59 H23         -0.6120     2.0260    -0.0290 hc         1 LBR       0.074200
     60 H24         -1.3230     3.4160    -0.8010 hc         1 LBR       0.074200
     61 H25          1.3840     5.9510     1.1000 h1         1 LBR       0.056700
     62 H26          2.1320     4.5830     1.9280 h1         1 LBR       0.056700
     63 H27          3.7010     5.8290     0.6080 h1         1 LBR       0.070700
     64 H28          2.2470     6.6620    -1.1470 h1         1 LBR       0.031200
     65 H29          3.7710     6.0130    -1.7300 h1         1 LBR       0.031200
     66 H30          2.1550     5.1670    -3.0240 ho         1 LBR       0.401000
     67 H31          5.2330     1.9270     0.7940 hc         1 LBR       0.074200
     68 H32          4.9250     1.7960    -0.9160 hc         1 LBR       0.074200
     69 H33          7.2290     2.6200    -1.4240 hc         1 LBR       0.053200
     70 H34          7.5330     2.8700     0.2820 hc         1 LBR       0.053200
     71 H35          7.2480     0.4340     0.7110 hc         1 LBR       0.038200
     72 H36          6.9430     0.1580    -0.9910 hc         1 LBR       0.038200
     73 H37          9.2080     0.9790    -1.5670 hc         1 LBR       0.039700
     74 H38          9.5090     1.3970     0.1050 hc         1 LBR       0.039700
     75 H39          9.2960    -1.0030     0.7580 hc         1 LBR       0.037200
     76 H40          9.0160    -1.4410    -0.9130 hc         1 LBR       0.037200
     77 H41         11.2660    -0.5990    -1.5400 hc         1 LBR       0.037700
     78 H42         11.5360    -0.0440     0.0980 hc         1 LBR       0.037700
     79 H43         11.3590    -2.3960     0.9310 hc         1 LBR       0.037200
     80 H44         11.1190    -2.9620    -0.7080 hc         1 LBR       0.037200
     81 H45         13.3670    -2.0890    -1.3510 hc         1 LBR       0.037700
     82 H46         13.5980    -1.4670     0.2690 hc         1 LBR       0.037700
     83 H47         13.4300    -3.7940     1.1830 hc         1 LBR       0.036700
     84 H48         13.2280    -4.4160    -0.4400 hc         1 LBR       0.036700
     85 H49         15.4780    -3.5220    -1.0670 hc         1 LBR       0.036700
     86 H50         15.6760    -2.8790     0.5490 hc         1 LBR       0.036700
     87 H51         15.5200    -5.1930     1.4910 hc         1 LBR       0.036700
     88 H52         15.3220    -5.8390    -0.1230 hc         1 LBR       0.036700
     89 H53         17.5720    -4.9480    -0.7570 hc         1 LBR       0.036700
     90 H54         17.7690    -4.2950     0.8540 hc         1 LBR       0.036700
     91 H55         17.6550    -6.6100     1.8210 hc         1 LBR       0.031367
     92 H56         17.4310    -7.2760     0.2060 hc         1 LBR       0.031367
     93 H57         18.9500    -6.4920     0.6330 hc         1 LBR       0.031367
@<TRIPOS>BOND
     1     1     2 1   
     2     2     3 1   
     3     2    37 1   
     4     2    38 1   
     5     3     4 1   
     6     3    39 1   
     7     3    40 1   
     8     4     5 1   
     9     4    41 1   
    10     4    42 1   
    11     5     6 1   
    12     5    43 1   
    13     5    44 1   
    14     6     7 1   
    15     6    45 1   
    16     6    46 1   
    17     7     8 1   
    18     7    47 1   
    19     7    48 1   
    20     8     9 1   
    21     8    49 1   
    22     8    50 1   
    23     9    10 1   
    24     9    51 1   
    25     9    52 1   
    26    10    11 1   
    27    10    53 1   
    28    10    54 1   
    29    11    12 1   
    30    11    55 1   
    31    11    56 1   
    32    12    13 1   
    33    12    57 1   
    34    12    58 1   
    35    13    14 1   
    36    13    59 1   
    37    13    60 1   
    38    14    15 2   
    39    14    16 1   
    40    16    17 1   
    41    17    18 1   
    42    17    61 1   
    43    17    62 1   
    44    18    19 1   
    45    18    21 1   
    46    18    63 1   
    47    19    20 1   
    48    19    64 1   
    49    19    65 1   
    50    20    66 1   
    51    21    22 1   
    52    22    23 2   
    53    22    24 1   
    54    24    25 1   
    55    24    67 1   
    56    24    68 1   
    57    25    26 1   
    58    25    69 1   
    59    25    70 1   
    60    26    27 1   
    61    26    71 1   
    62    26    72 1   
    63    27    28 1   
    64    27    73 1   
    65    27    74 1   
    66    28    29 1   
    67    28    75 1   
    68    28    76 1   
    69    29    30 1   
    70    29    77 1   
    71    29    78 1   
    72    30    31 1   
    73    30    79 1   
    74    30    80 1   
    75    31    32 1   
    76    31    81 1   
    77    31    82 1   
    78    32    33 1   
    79    32    83 1   
    80    32    84 1   
    81    33    34 1   
    82    33    85 1   
    83    33    86 1   
    84    34    35 1   
    85    34    87 1   
    86    34    88 1   
    87    35    36 1   
    88    35    89 1   
    89    35    90 1   
    90    36    91 1   
    91    36    92 1   
    92    36    93 1   
@<TRIPOS>SUBSTRUCTURE
     1 LBR         1 TEMP              0 ****  ****    0 ROOT
