@<TRIPOS>MOLECULE
LBR
   93    92     1     0     0
SMALL
No Charge or Current Charge


@<TRIPOS>ATOM
      1 Br1        -14.9750    -3.2190    -1.0530 br         1 LBR      -0.281000
      2 C33        -13.7700    -1.6690    -0.7160 c3         1 LBR       0.096600
      3 CCA        -12.3170    -2.1260    -0.4820 c3         1 LBR      -0.077400
      4 CBA        -11.3520    -0.9500    -0.2170 c3         1 LBR      -0.078400
      5 CAA         -9.8950    -1.4050     0.0190 c3         1 LBR      -0.074400
      6 CA9         -8.9300    -0.2290     0.2830 c3         1 LBR      -0.075400
      7 CA8         -7.4730    -0.6840     0.5190 c3         1 LBR      -0.073400
      8 CA7         -6.5080     0.4920     0.7830 c3         1 LBR      -0.074400
      9 CA6         -5.0510     0.0370     1.0190 c3         1 LBR      -0.073400
     10 CA5         -4.0860     1.2130     1.2830 c3         1 LBR      -0.075400
     11 CA4         -2.6290     0.7580     1.5200 c3         1 LBR      -0.075400
     12 CA3         -1.6640     1.9340     1.7830 c3         1 LBR      -0.069400
     13 CA2         -0.2050     1.4780     2.0210 c3         1 LBR      -0.136400
     14 CA1          0.7190     2.6730     2.2690 c          1 LBR       0.591100
     15 OA1          0.8750     3.1930     3.3650 o          1 LBR      -0.497000
     16 OG1          1.2970     3.1160     1.1100 os         1 LBR      -0.417100
     17 CG1          2.1790     4.2560     1.1840 c3         1 LBR       0.168600
     18 CG2          2.7330     4.6020    -0.2250 c3         1 LBR       0.176300
     19 CG3          1.6320     4.9690    -1.2780 c3         1 LBR       0.144600
     20 O3           0.9820     3.8140    -1.8450 oh         1 LBR      -0.635000
     21 OG2          3.5370     3.4840    -0.6820 os         1 LBR      -0.428100
     22 CB1          4.3660     3.6550    -1.7600 c          1 LBR       0.594100
     23 OB1          4.5950     4.7300    -2.2990 o          1 LBR      -0.497000
     24 CB2          5.1160     2.3660    -2.1000 c3         1 LBR      -0.137400
     25 CB3          6.4420     2.2590    -1.3100 c3         1 LBR      -0.069400
     26 CB4          7.2260     0.9640    -1.6190 c3         1 LBR      -0.075400
     27 CB5          8.5500     0.8570    -0.8300 c3         1 LBR      -0.074400
     28 CB6          9.3330    -0.4380    -1.1390 c3         1 LBR      -0.074400
     29 CB7         10.6570    -0.5450    -0.3500 c3         1 LBR      -0.074400
     30 CB8         11.4400    -1.8400    -0.6590 c3         1 LBR      -0.074400
     31 CB9         12.7640    -1.9480     0.1300 c3         1 LBR      -0.074400
     32 CAB         13.5470    -3.2430    -0.1780 c3         1 LBR      -0.074400
     33 CBB         14.8710    -3.3500     0.6100 c3         1 LBR      -0.074400
     34 CCB         15.6540    -4.6450     0.3020 c3         1 LBR      -0.075400
     35 C35         16.9780    -4.7530     1.0900 c3         1 LBR      -0.074400
     36 C36         17.7590    -6.0450     0.7830 c3         1 LBR      -0.088100
     37 H1         -13.8380    -1.0140    -1.5950 h1         1 LBR       0.069700
     38 H2         -14.1630    -1.1440     0.1640 h1         1 LBR       0.069700
     39 H3         -12.2940    -2.8150     0.3720 hc         1 LBR       0.055700
     40 H4         -11.9740    -2.6880    -1.3590 hc         1 LBR       0.055700
     41 H5         -11.3810    -0.2610    -1.0710 hc         1 LBR       0.039700
     42 H6         -11.7000    -0.3880     0.6590 hc         1 LBR       0.039700
     43 H7          -9.8660    -2.0940     0.8730 hc         1 LBR       0.039700
     44 H8          -9.5470    -1.9670    -0.8570 hc         1 LBR       0.039700
     45 H9          -8.9580     0.4590    -0.5710 hc         1 LBR       0.037700
     46 H10         -9.2780     0.3330     1.1590 hc         1 LBR       0.037700
     47 H11         -7.4450    -1.3720     1.3730 hc         1 LBR       0.037700
     48 H12         -7.1250    -1.2460    -0.3570 hc         1 LBR       0.037700
     49 H13         -6.5360     1.1800    -0.0710 hc         1 LBR       0.037700
     50 H14         -6.8560     1.0540     1.6590 hc         1 LBR       0.037700
     51 H15         -5.0230    -0.6510     1.8730 hc         1 LBR       0.037700
     52 H16         -4.7030    -0.5250     0.1430 hc         1 LBR       0.037700
     53 H17         -4.1140     1.9010     0.4290 hc         1 LBR       0.039700
     54 H18         -4.4340     1.7750     2.1590 hc         1 LBR       0.039700
     55 H19         -2.6010     0.0700     2.3740 hc         1 LBR       0.037700
     56 H20         -2.2810     0.1960     0.6440 hc         1 LBR       0.037700
     57 H21         -1.6910     2.6230     0.9290 hc         1 LBR       0.053200
     58 H22         -2.0120     2.4980     2.6590 hc         1 LBR       0.053200
     59 H23         -0.1730     0.8120     2.8910 hc         1 LBR       0.074200
     60 H24          0.1280     0.9520     1.1180 hc         1 LBR       0.074200
     61 H25          1.6440     5.1300     1.5790 h1         1 LBR       0.056700
     62 H26          3.0230     4.0480     1.8550 h1         1 LBR       0.056700
     63 H27          3.3690     5.4880    -0.0930 h1         1 LBR       0.070700
     64 H28          0.8910     5.6210    -0.7970 h1         1 LBR       0.031200
     65 H29          2.0960     5.5590    -2.0780 h1         1 LBR       0.031200
     66 H30          0.2990     4.1440    -2.4690 ho         1 LBR       0.440000
     67 H31          4.4930     1.5090    -1.8210 hc         1 LBR       0.074200
     68 H32          5.3350     2.3510    -3.1740 hc         1 LBR       0.074200
     69 H33          7.0720     3.1270    -1.5440 hc         1 LBR       0.053200
     70 H34          6.2260     2.3020    -0.2350 hc         1 LBR       0.053200
     71 H35          6.5960     0.0970    -1.3850 hc         1 LBR       0.038200
     72 H36          7.4430     0.9220    -2.6940 hc         1 LBR       0.038200
     73 H37          9.1800     1.7240    -1.0650 hc         1 LBR       0.039700
     74 H38          8.3330     0.8990     0.2440 hc         1 LBR       0.039700
     75 H39          8.7030    -1.3050    -0.9050 hc         1 LBR       0.037200
     76 H40          9.5500    -0.4800    -2.2140 hc         1 LBR       0.037200
     77 H41         11.2870     0.3220    -0.5840 hc         1 LBR       0.037700
     78 H42         10.4400    -0.5030     0.7250 hc         1 LBR       0.037700
     79 H43         10.8100    -2.7070    -0.4240 hc         1 LBR       0.037200
     80 H44         11.6570    -1.8820    -1.7330 hc         1 LBR       0.037200
     81 H45         13.3940    -1.0810    -0.1040 hc         1 LBR       0.037700
     82 H46         12.5470    -1.9050     1.2050 hc         1 LBR       0.037700
     83 H47         12.9170    -4.1090     0.0560 hc         1 LBR       0.036700
     84 H48         13.7640    -3.2850    -1.2530 hc         1 LBR       0.036700
     85 H49         15.5010    -2.4830     0.3760 hc         1 LBR       0.036700
     86 H50         14.6540    -3.3080     1.6850 hc         1 LBR       0.036700
     87 H51         15.0240    -5.5120     0.5360 hc         1 LBR       0.036700
     88 H52         15.8710    -4.6880    -0.7730 hc         1 LBR       0.036700
     89 H53         17.6120    -3.8890     0.8570 hc         1 LBR       0.036700
     90 H54         16.7650    -4.7130     2.1660 hc         1 LBR       0.036700
     91 H55         17.1640    -6.9290     1.0390 hc         1 LBR       0.031367
     92 H56         18.0190    -6.0980    -0.2810 hc         1 LBR       0.031367
     93 H57         18.6890    -6.0770     1.3640 hc         1 LBR       0.031367
@<TRIPOS>BOND
     1     1     2 1   
     2     2     3 1   
     3     2    37 1   
     4     2    38 1   
     5     3     4 1   
     6     3    39 1   
     7     3    40 1   
     8     4     5 1   
     9     4    41 1   
    10     4    42 1   
    11     5     6 1   
    12     5    43 1   
    13     5    44 1   
    14     6     7 1   
    15     6    45 1   
    16     6    46 1   
    17     7     8 1   
    18     7    47 1   
    19     7    48 1   
    20     8     9 1   
    21     8    49 1   
    22     8    50 1   
    23     9    10 1   
    24     9    51 1   
    25     9    52 1   
    26    10    11 1   
    27    10    53 1   
    28    10    54 1   
    29    11    12 1   
    30    11    55 1   
    31    11    56 1   
    32    12    13 1   
    33    12    57 1   
    34    12    58 1   
    35    13    14 1   
    36    13    59 1   
    37    13    60 1   
    38    14    15 2   
    39    14    16 1   
    40    16    17 1   
    41    17    18 1   
    42    17    61 1   
    43    17    62 1   
    44    18    19 1   
    45    18    21 1   
    46    18    63 1   
    47    19    20 1   
    48    19    64 1   
    49    19    65 1   
    50    20    66 1   
    51    21    22 1   
    52    22    23 2   
    53    22    24 1   
    54    24    25 1   
    55    24    67 1   
    56    24    68 1   
    57    25    26 1   
    58    25    69 1   
    59    25    70 1   
    60    26    27 1   
    61    26    71 1   
    62    26    72 1   
    63    27    28 1   
    64    27    73 1   
    65    27    74 1   
    66    28    29 1   
    67    28    75 1   
    68    28    76 1   
    69    29    30 1   
    70    29    77 1   
    71    29    78 1   
    72    30    31 1   
    73    30    79 1   
    74    30    80 1   
    75    31    32 1   
    76    31    81 1   
    77    31    82 1   
    78    32    33 1   
    79    32    83 1   
    80    32    84 1   
    81    33    34 1   
    82    33    85 1   
    83    33    86 1   
    84    34    35 1   
    85    34    87 1   
    86    34    88 1   
    87    35    36 1   
    88    35    89 1   
    89    35    90 1   
    90    36    91 1   
    91    36    92 1   
    92    36    93 1   
@<TRIPOS>SUBSTRUCTURE
     1 LBR         1 TEMP              0 ****  ****    0 ROOT
