@<TRIPOS>MOLECULE
LBU
   42    44     1     0     0
SMALL
abcg2


@<TRIPOS>ATOM
      1 CAA         63.4080     5.4580    39.2250 ca         1 LBU      -0.050000
      2 CAB         62.0570     5.2220    39.4530 ca         1 LBU      -0.174000
      3 CAC         61.4830     4.0270    39.0260 ca         1 LBU       0.140100
      4 OAO         60.1630     3.7360    39.2230 oh         1 LBU      -0.538100
      5 CAD         62.2670     3.0740    38.3800 ca         1 LBU      -0.174000
      6 CAE         63.6140     3.3250    38.1610 ca         1 LBU      -0.050000
      7 CAF         64.2080     4.5200    38.5720 ca         1 LBU      -0.133300
      8 CAG         65.6770     4.7710    38.3370 c3         1 LBU      -0.004100
      9 CAI         66.0270     5.3120    36.9400 c5         1 LBU       0.163200
     10 CAR         65.4150     6.7040    36.6670 c          1 LBU       0.603100
     11 OAX         65.1690     7.5050    37.5350 o          1 LBU      -0.480000
     12 OAY         65.2420     6.9180    35.3710 os         1 LBU      -0.424100
     13 CAZ         64.7370     8.2180    34.9910 c3         1 LBU       0.152900
     14 OAJ         65.4670     4.4070    35.9600 os         1 LBU      -0.390100
     15 CAK         66.4390     3.9540    35.1440 c          1 LBU       0.630300
     16 OAP         66.2380     3.2030    34.2160 o          1 LBU      -0.486000
     17 CAL         67.7120     4.5110    35.5870 ce         1 LBU      -0.007100
     18 OAQ         68.8480     4.1810    34.9480 oh         1 LBU      -0.502100
     19 CAM         67.5310     5.3210    36.6530 cf         1 LBU      -0.084400
     20 CAN         68.5310     6.0450    37.4230 ca         1 LBU      -0.082800
     21 CAS         69.9010     5.7980    37.2150 ca         1 LBU      -0.051000
     22 CAT         70.8740     6.4650    37.9370 ca         1 LBU      -0.177000
     23 CAU         70.5080     7.4120    38.8940 ca         1 LBU       0.149100
     24 OBA         71.4200     8.0980    39.6300 oh         1 LBU      -0.532100
     25 CAV         69.1580     7.6760    39.1180 ca         1 LBU      -0.177000
     26 CAW         68.1910     7.0020    38.3960 ca         1 LBU      -0.051000
     27 H1          63.8460     6.3890    39.5600 ha         1 LBU       0.121500
     28 H2          61.4490     5.9600    39.9650 ha         1 LBU       0.123000
     29 H3          59.7310     4.4670    39.6860 ho         1 LBU       0.462000
     30 H4          61.8160     2.1420    38.0610 ha         1 LBU       0.123000
     31 H5          64.2150     2.5740    37.6640 ha         1 LBU       0.121500
     32 H6          66.2370     3.8410    38.4460 hc         1 LBU       0.070700
     33 H7          66.0600     5.4690    39.0770 hc         1 LBU       0.070700
     34 H8          64.6670     8.1920    33.9080 h1         1 LBU       0.055033
     35 H9          63.7580     8.3800    35.4380 h1         1 LBU       0.055033
     36 H10         65.4290     8.9930    35.3160 h1         1 LBU       0.055033
     37 H11         68.6250     3.5740    34.2220 ho         1 LBU       0.489000
     38 H12         70.2100     5.0670    36.4840 ha         1 LBU       0.133500
     39 H13         71.9230     6.2550    37.7620 ha         1 LBU       0.125500
     40 H14         72.3170     7.8290    39.3870 ho         1 LBU       0.466000
     41 H15         68.8770     8.4130    39.8600 ha         1 LBU       0.125500
     42 H16         67.1570     7.2420    38.5890 ha         1 LBU       0.133500
@<TRIPOS>BOND
     1     1     2 ar  
     2     1     7 ar  
     3     1    27 1   
     4     2     3 ar  
     5     2    28 1   
     6     3     4 1   
     7     3     5 ar  
     8     4    29 1   
     9     5     6 ar  
    10     5    30 1   
    11     6     7 ar  
    12     6    31 1   
    13     7     8 1   
    14     8     9 1   
    15     8    32 1   
    16     8    33 1   
    17     9    10 1   
    18     9    14 1   
    19     9    19 1   
    20    10    11 2   
    21    10    12 1   
    22    12    13 1   
    23    13    34 1   
    24    13    35 1   
    25    13    36 1   
    26    14    15 1   
    27    15    16 2   
    28    15    17 1   
    29    17    18 1   
    30    17    19 2   
    31    18    37 1   
    32    19    20 1   
    33    20    21 ar  
    34    20    26 ar  
    35    21    22 ar  
    36    21    38 1   
    37    22    23 ar  
    38    22    39 1   
    39    23    24 1   
    40    23    25 ar  
    41    24    40 1   
    42    25    26 ar  
    43    25    41 1   
    44    26    42 1   
@<TRIPOS>SUBSTRUCTURE
     1 LBU         1 TEMP              0 ****  ****    0 ROOT
