@<TRIPOS>MOLECULE
LBU
   42    44     1     0     0
SMALL
No Charge or Current Charge


@<TRIPOS>ATOM
      1 CAA         63.4090     5.3970    39.3380 ca         1 LBU      -0.050000
      2 CAB         62.0780     5.0570    39.6390 ca         1 LBU      -0.174000
      3 CAC         61.5580     3.8210    39.2240 ca         1 LBU       0.140100
      4 OAO         60.2700     3.4840    39.5130 oh         1 LBU      -0.538100
      5 CAD         62.3680     2.9240    38.5130 ca         1 LBU      -0.174000
      6 CAE         63.6980     3.2610    38.2110 ca         1 LBU      -0.050000
      7 CAF         64.2260     4.5050    38.6140 ca         1 LBU      -0.133300
      8 CAG         65.6780     4.8680    38.2940 c3         1 LBU      -0.004100
      9 CAI         65.9360     5.3750    36.8420 c5         1 LBU       0.163200
     10 CAR         65.2850     6.7800    36.5610 c          1 LBU       0.603100
     11 OAX         64.7840     7.5340    37.3870 o          1 LBU      -0.480000
     12 OAY         65.4170     7.1090    35.2310 os         1 LBU      -0.424100
     13 CAZ         64.9040     8.3800    34.7900 c3         1 LBU       0.152900
     14 OAJ         65.3550     4.4120    35.9000 os         1 LBU      -0.390100
     15 CAK         66.3090     4.0240    35.0090 c          1 LBU       0.630300
     16 OAP         66.1420     3.2380    34.0870 o          1 LBU      -0.486000
     17 CAL         67.5980     4.6140    35.4580 ce         1 LBU      -0.007100
     18 OAQ         68.7630     4.3180    34.7960 oh         1 LBU      -0.502100
     19 CAM         67.4790     5.4120    36.5450 cf         1 LBU      -0.084400
     20 CAN         68.5060     6.0990    37.3780 ca         1 LBU      -0.082800
     21 CAS         69.8210     5.5860    37.4440 ca         1 LBU      -0.051000
     22 CAT         70.8040     6.2130    38.2300 ca         1 LBU      -0.177000
     23 CAU         70.4870     7.3630    38.9650 ca         1 LBU       0.149100
     24 OBA         71.4330     7.9770    39.7290 oh         1 LBU      -0.532100
     25 CAV         69.1890     7.8810    38.9170 ca         1 LBU      -0.177000
     26 CAW         68.2030     7.2560    38.1320 ca         1 LBU      -0.051000
     27 H1          63.8020     6.3570    39.6680 ha         1 LBU       0.121500
     28 H2          61.4590     5.7580    40.1940 ha         1 LBU       0.123000
     29 H3          59.8600     4.2230    40.0110 ho         1 LBU       0.462000
     30 H4          61.9660     1.9650    38.1960 ha         1 LBU       0.123000
     31 H5          64.3180     2.5560    37.6610 ha         1 LBU       0.121500
     32 H6          66.3050     3.9870    38.4720 hc         1 LBU       0.070700
     33 H7          66.0370     5.6140    39.0130 hc         1 LBU       0.070700
     34 H8          65.0740     8.5070    33.7130 h1         1 LBU       0.055033
     35 H9          63.8240     8.4520    34.9750 h1         1 LBU       0.055033
     36 H10         65.4030     9.2070    35.3120 h1         1 LBU       0.055033
     37 H11         68.5300     3.7130    34.0540 ho         1 LBU       0.489000
     38 H12         70.0890     4.6850    36.9000 ha         1 LBU       0.133500
     39 H13         71.8080     5.7950    38.2640 ha         1 LBU       0.125500
     40 H14         72.2740     7.4790    39.6420 ho         1 LBU       0.466000
     41 H15         68.9410     8.7730    39.4880 ha         1 LBU       0.125500
     42 H16         67.2120     7.6930    38.1180 ha         1 LBU       0.133500
@<TRIPOS>BOND
     1     1     2 ar  
     2     1     7 ar  
     3     1    27 1   
     4     2     3 ar  
     5     2    28 1   
     6     3     4 1   
     7     3     5 ar  
     8     4    29 1   
     9     5     6 ar  
    10     5    30 1   
    11     6     7 ar  
    12     6    31 1   
    13     7     8 1   
    14     8     9 1   
    15     8    32 1   
    16     8    33 1   
    17     9    10 1   
    18     9    14 1   
    19     9    19 1   
    20    10    11 2   
    21    10    12 1   
    22    12    13 1   
    23    13    34 1   
    24    13    35 1   
    25    13    36 1   
    26    14    15 1   
    27    15    16 2   
    28    15    17 1   
    29    17    18 1   
    30    17    19 2   
    31    18    37 1   
    32    19    20 1   
    33    20    21 ar  
    34    20    26 ar  
    35    21    22 ar  
    36    21    38 1   
    37    22    23 ar  
    38    22    39 1   
    39    23    24 1   
    40    23    25 ar  
    41    24    40 1   
    42    25    26 ar  
    43    25    41 1   
    44    26    42 1   
@<TRIPOS>SUBSTRUCTURE
     1 LBU         1 TEMP              0 ****  ****    0 ROOT
