@<TRIPOS>MOLECULE
LBV
   78    81     1     0     0
SMALL
abcg2


@<TRIPOS>ATOM
      1 C1A          3.6970     1.2500    -1.9660 c          1 LBV       0.580000
      2 C1B          0.1770     2.6310     0.2700 cc         1 LBV       0.205000
      3 O1B         -6.1610     3.6290     0.7260 o          1 LBV      -0.710000
      4 C1C         -1.7440    -1.2640    -0.0840 cc         1 LBV      -0.243800
      5 O1C         -6.9250    -3.1780     1.1710 o          1 LBV      -0.712000
      6 C1D          2.1500    -3.2000     0.2920 cc         1 LBV       0.035600
      7 C2A          4.7420     2.1610    -1.3660 c5         1 LBV      -0.106500
      8 C2B         -0.9910     3.3640     0.6230 cc         1 LBV      -0.183200
      9 O2B         -6.1140     4.3180    -1.3930 o          1 LBV      -0.710000
     10 C2C         -2.4420    -2.4020    -0.5040 cd         1 LBV       0.045700
     11 O2C         -6.6340    -2.9390    -1.0260 o          1 LBV      -0.712000
     12 C2D          3.3300    -3.9410     0.7160 cc         1 LBV      -0.035200
     13 C3A          3.9710     2.9260    -0.3230 cf         1 LBV      -0.211800
     14 C3B         -2.0620     2.5000     0.5600 cd         1 LBV       0.076800
     15 C3C         -1.5370    -3.4720    -0.5150 cd         1 LBV      -0.134300
     16 C3D          4.3780    -3.0800     0.7810 cd         1 LBV      -0.140200
     17 C4A          2.5590     2.5640    -0.4460 cf         1 LBV       0.311200
     18 C4B         -1.5570     1.2100     0.2050 cd         1 LBV      -0.061000
     19 C4C         -0.3010    -2.9780    -0.0930 cc         1 LBV      -0.072800
     20 C4D          3.8990    -1.7480     0.3390 c          1 LBV       0.568200
     21 CAA          4.4680     3.7390     0.6130 c2         1 LBV      -0.136200
     22 CAB         -3.4980     2.8360     0.7690 c3         1 LBV      -0.038200
     23 CAC         -3.8920    -2.4800    -0.8410 c3         1 LBV      -0.034100
     24 CAD          5.7320    -3.3840     1.1950 cf         1 LBV      -0.172000
     25 CBA          5.9050     4.0710     0.8020 c3         1 LBV      -0.068900
     26 CBB         -4.1230     3.4050    -0.5050 c3         1 LBV      -0.202400
     27 CBC         -4.7210    -2.8080     0.4020 c3         1 LBV      -0.202400
     28 CBD          6.7510    -2.5270     1.2970 c2         1 LBV      -0.278000
     29 CGB         -5.6010     3.8200    -0.3710 c          1 LBV       0.721000
     30 CGC         -6.2310    -2.9870     0.1520 c          1 LBV       0.722000
     31 CHB          1.5040     3.1230     0.2090 cf         1 LBV      -0.384600
     32 CHC         -2.2490     0.0330     0.0810 ce         1 LBV       0.080800
     33 CHD          0.9030    -3.7050     0.1510 ce         1 LBV      -0.163200
     34 CMA          5.3500     3.0410    -2.4620 c3         1 LBV      -0.078100
     35 CMB         -1.0000     4.8200     0.9380 c3         1 LBV      -0.024900
     36 CMC         -1.8540    -4.8690    -0.9270 c3         1 LBV      -0.027800
     37 CMD          3.2870    -5.3890     1.0490 c3         1 LBV      -0.050900
     38 N_A          2.4860     1.5470    -1.3670 ns         1 LBV      -0.431500
     39 O_A          3.8310     0.4470    -2.8540 o          1 LBV      -0.497000
     40 N_B         -0.1940     1.3610     0.0310 na         1 LBV      -0.602000
     41 N_C         -0.4250    -1.6320     0.1260 na         1 LBV      -0.137000
     42 N_D          2.5460    -1.8870     0.1170 ns         1 LBV      -0.422100
     43 O_D          4.5210    -0.7190     0.1780 o          1 LBV      -0.530000
     44 H2A          5.5270     1.5510    -0.9130 hc         1 LBV       0.109700
     45 HAA1         3.7840     4.2050     1.3140 ha         1 LBV       0.181000
     46 HAB1        -4.0530     1.9560     1.0950 hc         1 LBV       0.077200
     47 HAB2        -3.5850     3.5630     1.5780 hc         1 LBV       0.077200
     48 HAC1        -4.2350    -1.5430    -1.2840 hc         1 LBV       0.075200
     49 HAC2        -4.0480    -3.2480    -1.6000 hc         1 LBV       0.075200
     50 HAD1         5.9170    -4.4220     1.4480 ha         1 LBV       0.171000
     51 HBA1         6.0890     5.1160     0.5420 hc         1 LBV       0.051367
     52 HBA2         6.1790     3.9620     1.8520 hc         1 LBV       0.051367
     53 HBA3         6.5720     3.4520     0.2060 hc         1 LBV       0.051367
     54 HBB1        -3.5480     4.2750    -0.8400 hc         1 LBV       0.025200
     55 HBB2        -4.0390     2.6730    -1.3150 hc         1 LBV       0.025200
     56 HBC1        -4.3400    -3.7260     0.8640 hc         1 LBV       0.022200
     57 HBC2        -4.5800    -2.0280     1.1570 hc         1 LBV       0.022200
     58 HBD1         7.7200    -2.8810     1.6240 ha         1 LBV       0.173500
     59 HBD2         6.6650    -1.4760     1.0680 ha         1 LBV       0.173500
     60 HHB1         1.6920     4.0360     0.7560 ha         1 LBV       0.216000
     61 HHC1        -3.3280     0.1140     0.1140 ha         1 LBV       0.258000
     62 HHD1         0.8000    -4.7770     0.2480 ha         1 LBV       0.210000
     63 HMA1         4.5860     3.6270    -2.9740 hc         1 LBV       0.047700
     64 HMA2         6.0700     3.7340    -2.0310 hc         1 LBV       0.047700
     65 HMA3         5.8690     2.4310    -3.2000 hc         1 LBV       0.047700
     66 HMB1        -0.7010     5.4140     0.0720 hc         1 LBV       0.049033
     67 HMB2        -1.9910     5.1540     1.2390 hc         1 LBV       0.049033
     68 HMB3        -0.3100     5.0610     1.7490 hc         1 LBV       0.049033
     69 HMC1        -2.1140    -4.9210    -1.9860 hc         1 LBV       0.051367
     70 HMC2        -1.0170    -5.5460    -0.7660 hc         1 LBV       0.051367
     71 HMC3        -2.7060    -5.2570    -0.3670 hc         1 LBV       0.051367
     72 HMD1         2.9610    -5.9760     0.1890 hc         1 LBV       0.056033
     73 HMD2         4.2580    -5.7660     1.3580 hc         1 LBV       0.056033
     74 HMD3         2.5810    -5.5810     1.8570 hc         1 LBV       0.056033
     75 HAD          1.6250     1.2650    -1.8160 hn         1 LBV       0.333500
     76 HAE          0.4350     0.6100    -0.1890 hn         1 LBV       0.509000
     77 HAF          0.1250    -1.1970     0.8540 hn         1 LBV       0.337000
     78 HAG          2.0520    -1.2330    -0.4680 hn         1 LBV       0.331500
@<TRIPOS>BOND
     1     1     7 1   
     2     1    38 1   
     3     1    39 2   
     4     2     8 1   
     5     2    31 2   
     6     2    40 1   
     7     3    29 1   
     8     4    10 2   
     9     4    32 1   
    10     4    41 1   
    11     5    30 1   
    12     6    12 1   
    13     6    33 2   
    14     6    42 1   
    15     7    13 1   
    16     7    34 1   
    17     7    44 1   
    18     8    14 2   
    19     8    35 1   
    20     9    29 1   
    21    10    15 1   
    22    10    23 1   
    23    11    30 1   
    24    12    16 2   
    25    12    37 1   
    26    13    17 1   
    27    13    21 2   
    28    14    18 1   
    29    14    22 1   
    30    15    19 2   
    31    15    36 1   
    32    16    20 1   
    33    16    24 1   
    34    17    31 1   
    35    17    38 2   
    36    18    32 2   
    37    18    40 1   
    38    19    33 1   
    39    19    41 1   
    40    20    42 1   
    41    20    43 2   
    42    21    25 1   
    43    21    45 1   
    44    22    26 1   
    45    22    46 1   
    46    22    47 1   
    47    23    27 1   
    48    23    48 1   
    49    23    49 1   
    50    24    28 2   
    51    24    50 1   
    52    25    51 1   
    53    25    52 1   
    54    25    53 1   
    55    26    29 1   
    56    26    54 1   
    57    26    55 1   
    58    27    30 1   
    59    27    56 1   
    60    27    57 1   
    61    28    58 1   
    62    28    59 1   
    63    31    60 1   
    64    32    61 1   
    65    33    62 1   
    66    34    63 1   
    67    34    64 1   
    68    34    65 1   
    69    35    66 1   
    70    35    67 1   
    71    35    68 1   
    72    36    69 1   
    73    36    70 1   
    74    36    71 1   
    75    37    72 1   
    76    37    73 1   
    77    37    74 1   
    78    38    75 1   
    79    40    76 1   
    80    41    77 1   
    81    42    78 1   
@<TRIPOS>SUBSTRUCTURE
     1 LBV         1 TEMP              0 ****  ****    0 ROOT
