@<TRIPOS>MOLECULE
LBV
   78    81     1     0     0
SMALL
No Charge or Current Charge


@<TRIPOS>ATOM
      1 C1A          3.7060     1.4610    -2.6270 c          1 LBV       0.580000
      2 C1B          0.3210     2.6660     0.1130 cc         1 LBV       0.205000
      3 O1B         -6.4430     2.5870     0.8910 o          1 LBV      -0.710000
      4 C1C         -1.6930    -1.3570    -0.2540 cc         1 LBV      -0.243800
      5 O1C         -6.9320    -1.9130    -0.2970 o          1 LBV      -0.712000
      6 C1D          2.1790    -3.3810     0.1320 cc         1 LBV       0.035600
      7 C2A          4.8060     2.2190    -1.8160 c5         1 LBV      -0.106500
      8 C2B         -0.8260     3.3100     0.6800 cc         1 LBV      -0.183200
      9 O2B         -5.8060     4.6270     1.1640 o          1 LBV      -0.710000
     10 C2C         -2.4200    -2.4330    -0.7020 cd         1 LBV       0.045700
     11 O2C         -6.6670    -3.9730    -0.8710 o          1 LBV      -0.712000
     12 C2D          3.1700    -3.7990     1.0740 cc         1 LBV      -0.035200
     13 C3A          4.0410     2.8560    -0.6200 cf         1 LBV      -0.211800
     14 C3B         -1.8890     2.4250     0.7010 cd         1 LBV       0.076800
     15 C3C         -1.5630    -3.5650    -0.7630 cd         1 LBV      -0.134300
     16 C3D          4.2020    -2.8760     0.9970 cd         1 LBV      -0.140200
     17 C4A          2.6470     2.5910    -0.8750 cf         1 LBV       0.311200
     18 C4B         -1.4000     1.1970     0.1340 cd         1 LBV      -0.061000
     19 C4C         -0.3080    -3.1930    -0.3530 cc         1 LBV      -0.072800
     20 C4D          3.8680    -1.8560    -0.0410 c          1 LBV       0.568200
     21 CAA          4.5880     3.4710     0.4580 c2         1 LBV      -0.136200
     22 CAB         -3.2780     2.6890     1.2390 c3         1 LBV      -0.038200
     23 CAC         -3.8860    -2.4290    -1.0760 c3         1 LBV      -0.034100
     24 CAD          5.4570    -2.9030     1.7630 cf         1 LBV      -0.172000
     25 CBA          6.0650     3.6860     0.7170 c3         1 LBV      -0.068900
     26 CBB         -4.2670     3.1460     0.1390 c3         1 LBV      -0.202400
     27 CBC         -4.8000    -2.8740     0.0910 c3         1 LBV      -0.202400
     28 CBD          6.1900    -1.8070     2.0690 c2         1 LBV      -0.278000
     29 CGB         -5.6280     3.4870     0.7650 c          1 LBV       0.721000
     30 CGC         -6.2620    -2.9300    -0.3800 c          1 LBV       0.722000
     31 CHB          1.5680     3.1650    -0.0970 cf         1 LBV      -0.384600
     32 CHC         -2.1190     0.0260    -0.0130 ce         1 LBV       0.080800
     33 CHD          0.9030    -3.9990    -0.2090 ce         1 LBV      -0.163200
     34 CMA          5.4810     3.2960    -2.7010 c3         1 LBV      -0.078100
     35 CMB         -0.8090     4.7460     1.1510 c3         1 LBV      -0.024900
     36 CMC         -1.9800    -4.9490    -1.2040 c3         1 LBV      -0.027800
     37 CMD          3.0440    -5.0170     1.9510 c3         1 LBV      -0.050900
     38 N_A          2.5270     1.7900    -2.0140 ns         1 LBV      -0.431500
     39 O_A          3.8170     0.6690    -3.5500 o          1 LBV      -0.497000
     40 N_B         -0.0710     1.3930    -0.2010 na         1 LBV      -0.602000
     41 N_C         -0.4000    -1.8380    -0.0470 na         1 LBV      -0.137000
     42 N_D          2.6410    -2.2490    -0.4790 ns         1 LBV      -0.422100
     43 O_D          4.5100    -0.9010    -0.4480 o          1 LBV      -0.530000
     44 H2A          5.5790     1.5000    -1.5240 hc         1 LBV       0.109700
     45 HAA1         3.9390     3.8490     1.2500 ha         1 LBV       0.181000
     46 HAB1        -3.6710     1.7940     1.7370 hc         1 LBV       0.077200
     47 HAB2        -3.2340     3.4540     2.0230 hc         1 LBV       0.077200
     48 HAC1        -4.1870    -1.4300    -1.4130 hc         1 LBV       0.075200
     49 HAC2        -4.0520    -3.0890    -1.9350 hc         1 LBV       0.075200
     50 HAD1         5.7670    -3.8770     2.1510 ha         1 LBV       0.171000
     51 HBA1         6.4330     4.5710     0.1850 hc         1 LBV       0.051367
     52 HBA2         6.2580     3.8370     1.7850 hc         1 LBV       0.051367
     53 HBA3         6.6590     2.8230     0.3930 hc         1 LBV       0.051367
     54 HBB1        -3.8200     4.0400    -0.3130 hc         1 LBV       0.025200
     55 HBB2        -4.3610     2.3010    -0.5540 hc         1 LBV       0.025200
     56 HBC1        -4.4550    -3.8730     0.3830 hc         1 LBV       0.022200
     57 HBC2        -4.6750    -2.1180     0.8760 hc         1 LBV       0.022200
     58 HBD1         7.0980    -1.8900     2.6670 ha         1 LBV       0.173500
     59 HBD2         5.9020    -0.8090     1.7400 ha         1 LBV       0.173500
     60 HHB1         1.7460     4.1570     0.3120 ha         1 LBV       0.216000
     61 HHC1        -3.1840     0.1190     0.2010 ha         1 LBV       0.258000
     62 HHD1         0.7890    -5.0710    -0.0480 ha         1 LBV       0.210000
     63 HMA1         4.7530     4.0420    -3.0410 hc         1 LBV       0.047700
     64 HMA2         6.2720     3.8240    -2.1580 hc         1 LBV       0.047700
     65 HMA3         5.9380     2.8450    -3.5900 hc         1 LBV       0.047700
     66 HMB1        -0.2950     5.3910     0.4280 hc         1 LBV       0.049033
     67 HMB2        -1.8200     5.1470     1.2750 hc         1 LBV       0.049033
     68 HMB3        -0.2900     4.8330     2.1130 hc         1 LBV       0.049033
     69 HMC1        -2.5470    -4.9140    -2.1420 hc         1 LBV       0.051367
     70 HMC2        -1.1170    -5.6010    -1.3770 hc         1 LBV       0.051367
     71 HMC3        -2.6120    -5.4280    -0.4470 hc         1 LBV       0.051367
     72 HMD1         3.4230    -5.9070     1.4350 hc         1 LBV       0.056033
     73 HMD2         3.6110    -4.8950     2.8810 hc         1 LBV       0.056033
     74 HMD3         1.9990    -5.2010     2.2240 hc         1 LBV       0.056033
     75 HAD          1.6290     1.5310    -2.3970 hn         1 LBV       0.333500
     76 HAE          0.5330     0.6980    -0.6260 hn         1 LBV       0.509000
     77 HAF          0.3600    -1.3030     0.3580 hn         1 LBV       0.337000
     78 HAG          2.1890    -1.7830    -1.2550 hn         1 LBV       0.331500
@<TRIPOS>BOND
     1     1     7 1   
     2     1    38 1   
     3     1    39 2   
     4     2     8 1   
     5     2    31 2   
     6     2    40 1   
     7     3    29 1   
     8     4    10 2   
     9     4    32 1   
    10     4    41 1   
    11     5    30 1   
    12     6    12 1   
    13     6    33 2   
    14     6    42 1   
    15     7    13 1   
    16     7    34 1   
    17     7    44 1   
    18     8    14 2   
    19     8    35 1   
    20     9    29 1   
    21    10    15 1   
    22    10    23 1   
    23    11    30 1   
    24    12    16 2   
    25    12    37 1   
    26    13    17 1   
    27    13    21 2   
    28    14    18 1   
    29    14    22 1   
    30    15    19 2   
    31    15    36 1   
    32    16    20 1   
    33    16    24 1   
    34    17    31 1   
    35    17    38 2   
    36    18    32 2   
    37    18    40 1   
    38    19    33 1   
    39    19    41 1   
    40    20    42 1   
    41    20    43 2   
    42    21    25 1   
    43    21    45 1   
    44    22    26 1   
    45    22    46 1   
    46    22    47 1   
    47    23    27 1   
    48    23    48 1   
    49    23    49 1   
    50    24    28 2   
    51    24    50 1   
    52    25    51 1   
    53    25    52 1   
    54    25    53 1   
    55    26    29 1   
    56    26    54 1   
    57    26    55 1   
    58    27    30 1   
    59    27    56 1   
    60    27    57 1   
    61    28    58 1   
    62    28    59 1   
    63    31    60 1   
    64    32    61 1   
    65    33    62 1   
    66    34    63 1   
    67    34    64 1   
    68    34    65 1   
    69    35    66 1   
    70    35    67 1   
    71    35    68 1   
    72    36    69 1   
    73    36    70 1   
    74    36    71 1   
    75    37    72 1   
    76    37    73 1   
    77    37    74 1   
    78    38    75 1   
    79    40    76 1   
    80    41    77 1   
    81    42    78 1   
@<TRIPOS>SUBSTRUCTURE
     1 LBV         1 TEMP              0 ****  ****    0 ROOT
