@<TRIPOS>MOLECULE
LBW
   78    81     1     0     0
SMALL
bcc


@<TRIPOS>ATOM
      1 C1A         -3.9600     1.0020     0.9560 c          1 LBW       0.715500
      2 C1B         -0.0510     2.6530    -0.2080 cc         1 LBW       0.193000
      3 O1B          5.5270     3.6890     3.3140 o          1 LBW      -0.816800
      4 C1C          1.8830    -1.2810     0.0480 cc         1 LBW      -0.193100
      5 O1C          6.6240    -2.9670    -1.3950 o          1 LBW      -0.820800
      6 C1D         -2.0090    -3.1380     0.1560 cc         1 LBW       0.047600
      7 C2A         -4.8550     2.1320     0.4980 c5         1 LBW      -0.106500
      8 C2B          1.1350     3.4120    -0.0800 cc         1 LBW      -0.178200
      9 O2B          6.1680     3.4410     1.1940 o          1 LBW      -0.816800
     10 C2C          2.6160    -2.4770    -0.0470 cd         1 LBW       0.054700
     11 O2C          5.9570    -3.1240    -3.5150 o          1 LBW      -0.820800
     12 C2D         -3.3120    -3.7270     0.4370 cc         1 LBW      -0.042200
     13 C3A         -3.8790     3.1440    -0.0460 cf         1 LBW      -0.215800
     14 C3B          2.1930     2.5240    -0.0080 cd         1 LBW       0.087800
     15 C3C          1.7150    -3.5360     0.1160 cd         1 LBW      -0.147300
     16 C3D         -4.2640    -2.9630    -0.1530 cd         1 LBW      -0.120200
     17 C4A         -2.5340     2.5640     0.0310 cf         1 LBW       0.313200
     18 C4B          1.6620     1.2070    -0.0940 cd         1 LBW      -0.081000
     19 C4C          0.4490    -2.9790     0.3040 cc         1 LBW      -0.004100
     20 C4D         -3.5770    -1.8760    -0.8960 c          1 LBW       0.707700
     21 CAA         -4.1540     4.3720    -0.4920 c2         1 LBW      -0.088200
     22 CAB          3.6180     2.8650     0.2500 c3         1 LBW      -0.042200
     23 CAC          4.0630    -2.6070    -0.3720 c3         1 LBW      -0.035100
     24 CAD         -5.6960    -3.1670    -0.1070 cf         1 LBW      -0.118000
     25 CBA         -5.4930     5.0190    -0.4950 c3         1 LBW      -0.068900
     26 CBB          3.8660     3.1030     1.7400 c3         1 LBW      -0.203400
     27 CBC          4.2920    -2.7630    -1.8760 c3         1 LBW      -0.203400
     28 CBD         -6.6330    -2.3700    -0.6260 c2         1 LBW      -0.176000
     29 CGB          5.3230     3.4430     2.1080 c          1 LBW       0.930600
     30 CGC          5.7610    -2.9710    -2.2920 c          1 LBW       0.930600
     31 CHB         -1.3650     3.1730    -0.3090 cf         1 LBW      -0.330600
     32 CHC          2.3640     0.0280    -0.0380 ce         1 LBW       0.144800
     33 CHD         -0.8070    -3.6320     0.5230 ce         1 LBW      -0.132200
     34 CMA         -5.8920     1.6350    -0.5110 c3         1 LBW      -0.077100
     35 CMB          1.1860     4.8970     0.0270 c3         1 LBW      -0.025900
     36 CMC          2.0410    -4.9910     0.0740 c3         1 LBW      -0.026800
     37 CMD         -3.4720    -4.9390     1.2800 c3         1 LBW      -0.047900
     38 N_A         -2.6690     1.3230     0.5950 ns         1 LBW      -0.482500
     39 O_A         -4.2750    -0.0090     1.5310 o          1 LBW      -0.577500
     40 N_B          0.2770     1.3340    -0.1910 na         1 LBW      -0.556800
     41 N_C          0.5590    -1.6240     0.2320 na         1 LBW      -0.179100
     42 N_D         -2.2370    -1.9870    -0.5820 ns         1 LBW      -0.491100
     43 O_D         -4.0340    -1.0580    -1.6630 o          1 LBW      -0.594500
     44 H2A         -5.3740     2.5230     1.3800 hc         1 LBW       0.089700
     45 HAA1        -3.3430     4.9800    -0.8790 ha         1 LBW       0.132000
     46 HAB1         4.2740     2.0730    -0.1130 hc         1 LBW       0.080200
     47 HAB2         3.8830     3.7600    -0.3150 hc         1 LBW       0.080200
     48 HAC1         4.6180    -1.7420    -0.0050 hc         1 LBW       0.077200
     49 HAC2         4.4680    -3.4730     0.1550 hc         1 LBW       0.077200
     50 HAD1        -6.0210    -4.0610     0.4130 ha         1 LBW       0.121000
     51 HBA1        -5.4120     6.0430    -0.1290 hc         1 LBW       0.051367
     52 HBA2        -5.8860     5.0850    -1.5130 hc         1 LBW       0.051367
     53 HBA3        -6.2230     4.4930     0.1160 hc         1 LBW       0.051367
     54 HBB1         3.2180     3.9090     2.0980 hc         1 LBW       0.023200
     55 HBB2         3.5620     2.2170     2.3070 hc         1 LBW       0.023200
     56 HBC1         3.7000    -3.6020    -2.2580 hc         1 LBW       0.020700
     57 HBC2         3.9050    -1.8810    -2.3970 hc         1 LBW       0.020700
     58 HBD1        -6.4020    -1.4590    -1.1560 ha         1 LBW       0.122000
     59 HBD2        -7.6780    -2.6280    -0.5240 ha         1 LBW       0.122000
     60 HHB1        -1.4270     4.2090    -0.6110 ha         1 LBW       0.162000
     61 HHC1         3.4420     0.1240    -0.0560 ha         1 LBW       0.202000
     62 HHD1        -0.7840    -4.6070     0.9910 ha         1 LBW       0.163000
     63 HMA1        -6.4950     0.8420    -0.0710 hc         1 LBW       0.052033
     64 HMA2        -6.5610     2.4420    -0.8000 hc         1 LBW       0.052033
     65 HMA3        -5.4140     1.2460    -1.4080 hc         1 LBW       0.052033
     66 HMB1         0.8600     5.2370     1.0120 hc         1 LBW       0.049700
     67 HMB2         2.1970     5.2690    -0.1330 hc         1 LBW       0.049700
     68 HMB3         0.5420     5.3760    -0.7120 hc         1 LBW       0.049700
     69 HMC1         2.5440    -5.3100     0.9890 hc         1 LBW       0.050700
     70 HMC2         1.1460    -5.6010    -0.0380 hc         1 LBW       0.050700
     71 HMC3         2.7050    -5.2270    -0.7570 hc         1 LBW       0.050700
     72 HMD1        -3.1450    -4.7470     2.3030 hc         1 LBW       0.054700
     73 HMD2        -4.5050    -5.2770     1.3180 hc         1 LBW       0.054700
     74 HMD3        -2.8680    -5.7650     0.8990 hc         1 LBW       0.054700
     75 HAD         -1.8920     0.7660     0.9180 hn         1 LBW       0.334500
     76 HAE         -0.2720     0.6650    -0.7110 hn         1 LBW       0.448800
     77 HAF         -0.0910    -1.0280     0.7210 hn         1 LBW       0.292700
     78 HAG         -1.5400    -1.6000    -1.2010 hn         1 LBW       0.332500
@<TRIPOS>BOND
     1     1     7 1   
     2     1    38 1   
     3     1    39 2   
     4     2     8 1   
     5     2    31 2   
     6     2    40 1   
     7     3    29 1   
     8     4    10 2   
     9     4    32 1   
    10     4    41 1   
    11     5    30 1   
    12     6    12 1   
    13     6    33 2   
    14     6    42 1   
    15     7    13 1   
    16     7    34 1   
    17     7    44 1   
    18     8    14 2   
    19     8    35 1   
    20     9    29 1   
    21    10    15 1   
    22    10    23 1   
    23    11    30 1   
    24    12    16 2   
    25    12    37 1   
    26    13    17 1   
    27    13    21 2   
    28    14    18 1   
    29    14    22 1   
    30    15    19 2   
    31    15    36 1   
    32    16    20 1   
    33    16    24 1   
    34    17    31 1   
    35    17    38 2   
    36    18    32 2   
    37    18    40 1   
    38    19    33 1   
    39    19    41 1   
    40    20    42 1   
    41    20    43 2   
    42    21    25 1   
    43    21    45 1   
    44    22    26 1   
    45    22    46 1   
    46    22    47 1   
    47    23    27 1   
    48    23    48 1   
    49    23    49 1   
    50    24    28 2   
    51    24    50 1   
    52    25    51 1   
    53    25    52 1   
    54    25    53 1   
    55    26    29 1   
    56    26    54 1   
    57    26    55 1   
    58    27    30 1   
    59    27    56 1   
    60    27    57 1   
    61    28    58 1   
    62    28    59 1   
    63    31    60 1   
    64    32    61 1   
    65    33    62 1   
    66    34    63 1   
    67    34    64 1   
    68    34    65 1   
    69    35    66 1   
    70    35    67 1   
    71    35    68 1   
    72    36    69 1   
    73    36    70 1   
    74    36    71 1   
    75    37    72 1   
    76    37    73 1   
    77    37    74 1   
    78    38    75 1   
    79    40    76 1   
    80    41    77 1   
    81    42    78 1   
@<TRIPOS>SUBSTRUCTURE
     1 LBW         1 TEMP              0 ****  ****    0 ROOT
