@<TRIPOS>MOLECULE
LBW
   78    81     1     0     0
SMALL
No Charge or Current Charge


@<TRIPOS>ATOM
      1 C1A         -4.1490     0.9990     1.1840 c          1 LBW       0.573000
      2 C1B         -0.1720     2.7360     0.0310 cc         1 LBW       0.193000
      3 O1B          5.8830     4.1530     2.0630 o          1 LBW      -0.711500
      4 C1C          1.8080    -1.3830    -0.1170 cc         1 LBW      -0.243800
      5 O1C          6.7070    -1.4730    -1.8560 o          1 LBW      -0.715500
      6 C1D         -2.0830    -3.3870    -0.1730 cc         1 LBW       0.047600
      7 C2A         -5.0160     2.1080     0.5110 c5         1 LBW      -0.106500
      8 C2B          1.0700     3.4280     0.2000 cc         1 LBW      -0.178200
      9 O2B          6.4090     2.1150     1.5990 o          1 LBW      -0.711500
     10 C2C          2.5850    -2.5130    -0.2290 cd         1 LBW       0.054700
     11 O2C          6.5610    -3.6090    -2.1040 o          1 LBW      -0.715500
     12 C2D         -3.3290    -3.5860     0.5000 cc         1 LBW      -0.042200
     13 C3A         -3.9800     3.1320    -0.0340 cf         1 LBW      -0.215800
     14 C3B          2.1130     2.5230     0.1460 cd         1 LBW       0.087800
     15 C3C          1.7400    -3.6550    -0.1800 cd         1 LBW      -0.147300
     16 C3D         -4.2480    -2.7500    -0.1180 cd         1 LBW      -0.120200
     17 C4A         -2.6900     2.5170     0.1730 cf         1 LBW       0.313200
     18 C4B          1.5160     1.2270    -0.0510 cd         1 LBW      -0.081000
     19 C4C          0.4450    -3.2370    -0.0310 cc         1 LBW      -0.054800
     20 C4D         -3.5670    -2.0020    -1.2150 c          1 LBW       0.565200
     21 CAA         -4.2560     4.3540    -0.5560 c2         1 LBW      -0.138200
     22 CAB          3.5890     2.8340     0.2910 c3         1 LBW      -0.042200
     23 CAC          4.0890    -2.5570    -0.3900 c3         1 LBW      -0.035100
     24 CAD         -5.6620    -2.5790     0.2450 cf         1 LBW      -0.168000
     25 CBA         -5.6280     4.9730    -0.7200 c3         1 LBW      -0.068900
     26 CBB          4.1000     2.6270     1.7380 c3         1 LBW      -0.203400
     27 CBC          4.5300    -2.4090    -1.8660 c3         1 LBW      -0.203400
     28 CBD         -6.6410    -2.2570    -0.6310 c2         1 LBW      -0.276000
     29 CGB          5.5900     2.9910     1.8280 c          1 LBW       0.720000
     30 CGC          6.0600    -2.5020    -1.9700 c          1 LBW       0.720000
     31 CHB         -1.4370     3.2380     0.0420 cf         1 LBW      -0.380600
     32 CHC          2.2140     0.0300    -0.1090 ce         1 LBW       0.094800
     33 CHD         -0.7870    -4.0180     0.0460 ce         1 LBW      -0.182200
     34 CMA         -5.8860     1.5130    -0.6230 c3         1 LBW      -0.077100
     35 CMB          1.1490     4.9210     0.4300 c3         1 LBW      -0.025900
     36 CMC          2.2030    -5.0890    -0.2920 c3         1 LBW      -0.026800
     37 CMD         -3.5240    -4.5350     1.6530 c3         1 LBW      -0.047900
     38 N_A         -2.8600     1.2900     0.8240 ns         1 LBW      -0.415500
     39 O_A         -4.4600     0.1580     2.0130 o          1 LBW      -0.502000
     40 N_B          0.1440     1.4150    -0.1390 na         1 LBW      -0.612000
     41 N_C          0.4990    -1.8490     0.0130 na         1 LBW      -0.128000
     42 N_D         -2.2870    -2.4550    -1.1520 ns         1 LBW      -0.424100
     43 O_D         -4.0010    -1.1740    -2.0000 o          1 LBW      -0.519000
     44 H2A         -5.7000     2.5170     1.2630 hc         1 LBW       0.089700
     45 HAA1        -3.4420     4.9900    -0.9090 ha         1 LBW       0.182000
     46 HAB1         4.1780     2.2190    -0.4000 hc         1 LBW       0.080200
     47 HAB2         3.7860     3.8680    -0.0150 hc         1 LBW       0.080200
     48 HAC1         4.5590    -1.7730     0.2140 hc         1 LBW       0.077200
     49 HAC2         4.4800    -3.5010     0.0090 hc         1 LBW       0.077200
     50 HAD1        -5.9230    -2.7870     1.2860 ha         1 LBW       0.171000
     51 HBA1        -5.5610     6.0660    -0.7850 hc         1 LBW       0.051367
     52 HBA2        -6.1150     4.6170    -1.6360 hc         1 LBW       0.051367
     53 HBA3        -6.2820     4.7340     0.1270 hc         1 LBW       0.051367
     54 HBB1         3.5020     3.3000     2.3650 hc         1 LBW       0.023200
     55 HBB2         3.9490     1.5640     1.9660 hc         1 LBW       0.023200
     56 HBC1         4.0580    -3.2400    -2.4050 hc         1 LBW       0.020700
     57 HBC2         4.1810    -1.4210    -2.1880 hc         1 LBW       0.020700
     58 HBD1        -6.4360    -2.0780    -1.6870 ha         1 LBW       0.172000
     59 HBD2        -7.6790    -2.1730    -0.3050 ha         1 LBW       0.172000
     60 HHB1        -1.4980     4.3210     0.0930 ha         1 LBW       0.212000
     61 HHC1         3.2940     0.1540    -0.0670 ha         1 LBW       0.252000
     62 HHD1        -0.7490    -5.0160     0.4810 ha         1 LBW       0.213000
     63 HMA1        -6.5100     0.6920    -0.2500 hc         1 LBW       0.052033
     64 HMA2        -6.5560     2.2660    -1.0510 hc         1 LBW       0.052033
     65 HMA3        -5.2640     1.1220    -1.4360 hc         1 LBW       0.052033
     66 HMB1         0.4020     5.2470     1.1630 hc         1 LBW       0.049700
     67 HMB2         2.1280     5.2250     0.8160 hc         1 LBW       0.049700
     68 HMB3         0.9700     5.4670    -0.5030 hc         1 LBW       0.049700
     69 HMC1         2.6500    -5.4290     0.6490 hc         1 LBW       0.050700
     70 HMC2         1.3740    -5.7650    -0.5320 hc         1 LBW       0.050700
     71 HMC3         2.9530    -5.2040    -1.0820 hc         1 LBW       0.050700
     72 HMD1        -3.1480    -4.0960     2.5840 hc         1 LBW       0.054700
     73 HMD2        -4.5840    -4.7770     1.7950 hc         1 LBW       0.054700
     74 HMD3        -2.9920    -5.4780     1.4820 hc         1 LBW       0.054700
     75 HAD         -2.0820     0.8510     1.2940 hn         1 LBW       0.334500
     76 HAE         -0.5330     0.7090    -0.4070 hn         1 LBW       0.504000
     77 HAF         -0.3140    -1.2710     0.1760 hn         1 LBW       0.343000
     78 HAG         -1.5930    -2.1630    -1.8280 hn         1 LBW       0.332500
@<TRIPOS>BOND
     1     1     7 1   
     2     1    38 1   
     3     1    39 2   
     4     2     8 1   
     5     2    31 2   
     6     2    40 1   
     7     3    29 1   
     8     4    10 2   
     9     4    32 1   
    10     4    41 1   
    11     5    30 1   
    12     6    12 1   
    13     6    33 2   
    14     6    42 1   
    15     7    13 1   
    16     7    34 1   
    17     7    44 1   
    18     8    14 2   
    19     8    35 1   
    20     9    29 1   
    21    10    15 1   
    22    10    23 1   
    23    11    30 1   
    24    12    16 2   
    25    12    37 1   
    26    13    17 1   
    27    13    21 2   
    28    14    18 1   
    29    14    22 1   
    30    15    19 2   
    31    15    36 1   
    32    16    20 1   
    33    16    24 1   
    34    17    31 1   
    35    17    38 2   
    36    18    32 2   
    37    18    40 1   
    38    19    33 1   
    39    19    41 1   
    40    20    42 1   
    41    20    43 2   
    42    21    25 1   
    43    21    45 1   
    44    22    26 1   
    45    22    46 1   
    46    22    47 1   
    47    23    27 1   
    48    23    48 1   
    49    23    49 1   
    50    24    28 2   
    51    24    50 1   
    52    25    51 1   
    53    25    52 1   
    54    25    53 1   
    55    26    29 1   
    56    26    54 1   
    57    26    55 1   
    58    27    30 1   
    59    27    56 1   
    60    27    57 1   
    61    28    58 1   
    62    28    59 1   
    63    31    60 1   
    64    32    61 1   
    65    33    62 1   
    66    34    63 1   
    67    34    64 1   
    68    34    65 1   
    69    35    66 1   
    70    35    67 1   
    71    35    68 1   
    72    36    69 1   
    73    36    70 1   
    74    36    71 1   
    75    37    72 1   
    76    37    73 1   
    77    37    74 1   
    78    38    75 1   
    79    40    76 1   
    80    41    77 1   
    81    42    78 1   
@<TRIPOS>SUBSTRUCTURE
     1 LBW         1 TEMP              0 ****  ****    0 ROOT
