@<TRIPOS>MOLECULE
LBX
   24    23     1     0     0
SMALL
No Charge or Current Charge


@<TRIPOS>ATOM
      1 C10        -53.6180    19.3730    37.7500 c          1 LBX       0.636100
      2 C13        -54.9490    21.4100    38.4810 c3         1 LBX       0.174600
      3 C02        -49.8950    14.6970    37.7350 c          1 LBX       0.576900
      4 C03        -51.3340    15.1000    37.4730 c3         1 LBX      -0.240700
      5 C04        -51.6290    16.4110    38.1400 c2         1 LBX       0.395200
      6 C06        -53.0960    18.2850    38.7080 c3         1 LBX      -0.158500
      7 C07        -54.1240    18.1680    39.8480 c          1 LBX       0.749000
      8 C12        -53.5480    20.8230    38.2470 c3         1 LBX      -0.217400
      9 N05        -52.7830    16.9740    38.0450 n2         1 LBX      -0.519900
     10 O01        -48.9410    15.2100    37.1600 o          1 LBX      -0.525100
     11 O08        -53.7210    18.3100    40.9930 o          1 LBX      -0.697500
     12 O09        -55.2870    17.9150    39.5660 o          1 LBX      -0.697500
     13 O11        -54.0250    19.1280    36.6180 o          1 LBX      -0.563100
     14 O14        -55.6150    21.5810    37.2260 oh         1 LBX      -0.689000
     15 H1         -54.8520    22.3790    38.9900 h1         1 LBX       0.038200
     16 H2         -55.5240    20.7460    39.1410 h1         1 LBX       0.038200
     17 H3         -49.7470    13.8970    38.4920 h4         1 LBX      -0.038800
     18 H4         -51.4880    15.2000    36.3930 hc         1 LBX       0.072700
     19 H5         -51.9960    14.3320    37.8860 hc         1 LBX       0.072700
     20 H6         -50.8340    16.8750    38.7200 h4         1 LBX      -0.033200
     21 H8         -52.1800    18.6920    39.1550 h1         1 LBX       0.037700
     22 H9         -53.0250    21.4340    37.5020 hc         1 LBX       0.063200
     23 H10        -52.9970    20.8630    39.1940 hc         1 LBX       0.063200
     24 H14        -55.4460    20.7630    36.7030 ho         1 LBX       0.465000
@<TRIPOS>BOND
     1     1     6 1   
     2     1     8 1   
     3     1    13 2   
     4     2     8 1   
     5     2    14 1   
     6     2    15 1   
     7     2    16 1   
     8     3     4 1   
     9     3    10 2   
    10     3    17 1   
    11     4     5 1   
    12     4    18 1   
    13     4    19 1   
    14     5     9 2   
    15     5    20 1   
    16     6     7 1   
    17     6     9 1   
    18     6    21 1   
    19     7    11 1   
    20     7    12 1   
    21     8    22 1   
    22     8    23 1   
    23    14    24 1   
@<TRIPOS>SUBSTRUCTURE
     1 LBX         1 TEMP              0 ****  ****    0 ROOT
