@<TRIPOS>MOLECULE
LBX
   24    23     1     0     0
SMALL
bcc


@<TRIPOS>ATOM
      1 C10        -53.7920    19.2100    38.0060 c          1 LBX       0.636100
      2 C13        -54.8060    21.5350    37.9060 c3         1 LBX       0.151400
      3 C02        -50.0090    15.1800    37.1470 c          1 LBX       0.576900
      4 C03        -51.2990    15.1330    37.9100 c3         1 LBX      -0.240700
      5 C04        -51.6970    16.4390    38.5140 c2         1 LBX       0.395200
      6 C06        -53.1180    18.2080    38.9050 c3         1 LBX      -0.158500
      7 C07        -54.1310    17.8610    40.0720 c          1 LBX       0.959600
      8 C12        -53.6970    20.6470    38.4490 c3         1 LBX      -0.217400
      9 N05        -52.7810    17.0030    38.2080 n2         1 LBX      -0.519900
     10 O01        -49.3670    16.1800    36.9520 o          1 LBX      -0.525100
     11 O08        -53.7340    17.0100    40.8730 o          1 LBX      -0.802800
     12 O09        -55.2060    18.4860    40.0560 o          1 LBX      -0.802800
     13 O11        -54.3590    18.8930    36.9810 o          1 LBX      -0.563100
     14 O14        -54.7640    21.7030    36.5080 oh         1 LBX      -0.626800
     15 H1         -54.7090    22.5290    38.3490 h1         1 LBX       0.038200
     16 H2         -55.7730    21.1360    38.2390 h1         1 LBX       0.038200
     17 H3         -49.6770    14.2030    36.7540 h4         1 LBX      -0.038800
     18 H4         -52.0760    14.7590    37.2360 hc         1 LBX       0.072700
     19 H5         -51.1850    14.3660    38.6870 hc         1 LBX       0.072700
     20 H6         -51.0000    16.8630    39.2450 h4         1 LBX      -0.033200
     21 H8         -52.2430    18.6820    39.3790 h1         1 LBX       0.037700
     22 H9         -52.7180    21.0190    38.1230 hc         1 LBX       0.063200
     23 H10        -53.6810    20.6980    39.5400 hc         1 LBX       0.063200
     24 H14        -54.8330    20.8220    36.1260 ho         1 LBX       0.426000
@<TRIPOS>BOND
     1     1     6 1   
     2     1     8 1   
     3     1    13 2   
     4     2     8 1   
     5     2    14 1   
     6     2    15 1   
     7     2    16 1   
     8     3     4 1   
     9     3    10 2   
    10     3    17 1   
    11     4     5 1   
    12     4    18 1   
    13     4    19 1   
    14     5     9 2   
    15     5    20 1   
    16     6     7 1   
    17     6     9 1   
    18     6    21 1   
    19     7    11 1   
    20     7    12 1   
    21     8    22 1   
    22     8    23 1   
    23    14    24 1   
@<TRIPOS>SUBSTRUCTURE
     1 LBX         1 TEMP              0 ****  ****    0 ROOT
