@<TRIPOS>MOLECULE
LBY
   38    37     1     0     0
SMALL
bcc


@<TRIPOS>ATOM
      1 C1          -8.8880    50.0530    -1.7730 c3         1 LBY      -0.107767
      2 CT          -7.5720    50.0700    -2.5410 c3         1 LBY       0.198800
      3 C2          -6.6550    51.1960    -2.0770 c3         1 LBY      -0.107767
      4 C3          -7.8480    50.2190    -4.0320 c3         1 LBY      -0.107767
      5 O2          -6.9100    48.7830    -2.4600 os         1 LBY      -0.435900
      6 CZ          -6.4730    48.2570    -1.3170 c          1 LBY       0.763100
      7 O1          -6.5600    48.7760    -0.2200 o          1 LBY      -0.629000
      8 NZ          -5.8880    47.0590    -1.5270 ns         1 LBY      -0.567900
      9 CE          -5.8840    46.3090    -2.7680 c3         1 LBY       0.111000
     10 CD          -7.1850    45.5690    -3.0520 c3         1 LBY      -0.103400
     11 CG          -7.1190    44.7720    -4.3490 c3         1 LBY      -0.067400
     12 CB          -8.4110    44.0190    -4.6380 c3         1 LBY      -0.029400
     13 CA          -8.3610    43.1090    -5.8660 c3         1 LBY       0.021500
     14 C           -8.0710    43.8910    -7.1720 c          1 LBY       0.928600
     15 OXT         -8.7190    44.9450    -7.3350 o          1 LBY      -0.837300
     16 O           -7.2530    43.3920    -7.9700 o          1 LBY      -0.837300
     17 N           -7.3940    42.0390    -5.6610 n8         1 LBY      -0.892800
     18 H11         -8.7400    49.9920    -0.6970 hc         1 LBY       0.047033
     19 H12         -9.4390    50.9700    -1.9820 hc         1 LBY       0.047033
     20 H13         -9.5110    49.2150    -2.0890 hc         1 LBY       0.047033
     21 H21         -6.4700    51.1690    -1.0060 hc         1 LBY       0.047033
     22 H22         -5.6970    51.1560    -2.5980 hc         1 LBY       0.047033
     23 H23         -7.1190    52.1540    -2.3130 hc         1 LBY       0.047033
     24 H31         -8.3510    51.1670    -4.2230 hc         1 LBY       0.047033
     25 H32         -6.9230    50.2090    -4.6110 hc         1 LBY       0.047033
     26 H33         -8.4920    49.4180    -4.3990 hc         1 LBY       0.047033
     27 HZ1         -5.6090    46.5720    -0.6910 hn         1 LBY       0.316500
     28 HE2         -5.0650    45.5920    -2.6980 h1         1 LBY       0.052200
     29 HE3         -5.6390    46.9740    -3.5970 h1         1 LBY       0.052200
     30 HD2         -8.0120    46.2840    -3.1010 hc         1 LBY       0.033700
     31 HD3         -7.4030    44.8960    -2.2160 hc         1 LBY       0.033700
     32 HG2         -6.2850    44.0660    -4.3010 hc         1 LBY       0.056200
     33 HG3         -6.9010    45.4550    -5.1770 hc         1 LBY       0.056200
     34 HB2         -9.2280    44.7330    -4.7630 hc         1 LBY       0.014200
     35 HB3         -8.6740    43.4120    -3.7640 hc         1 LBY       0.014200
     36 HA          -9.3830    42.7100    -5.9960 h1         1 LBY      -0.003300
     37 H           -7.8080    41.3090    -5.0940 hn         1 LBY       0.324300
     38 H2          -7.1730    41.6300    -6.5580 hn         1 LBY       0.324300
@<TRIPOS>BOND
     1     1     2 1   
     2     1    18 1   
     3     1    19 1   
     4     1    20 1   
     5     2     3 1   
     6     2     4 1   
     7     2     5 1   
     8     3    21 1   
     9     3    22 1   
    10     3    23 1   
    11     4    24 1   
    12     4    25 1   
    13     4    26 1   
    14     5     6 1   
    15     6     7 2   
    16     6     8 1   
    17     8     9 1   
    18     8    27 1   
    19     9    10 1   
    20     9    28 1   
    21     9    29 1   
    22    10    11 1   
    23    10    30 1   
    24    10    31 1   
    25    11    12 1   
    26    11    32 1   
    27    11    33 1   
    28    12    13 1   
    29    12    34 1   
    30    12    35 1   
    31    13    14 1   
    32    13    17 1   
    33    13    36 1   
    34    14    15 1   
    35    14    16 1   
    36    17    37 1   
    37    17    38 1   
@<TRIPOS>SUBSTRUCTURE
     1 LBY         1 TEMP              0 ****  ****    0 ROOT
