@<TRIPOS>MOLECULE
LBY
   38    37     1     0     0
SMALL
No Charge or Current Charge


@<TRIPOS>ATOM
      1 C1          -8.9040    50.0080    -1.7550 c3         1 LBY      -0.107767
      2 CT          -7.5930    50.0290    -2.5840 c3         1 LBY       0.198800
      3 C2          -6.6340    51.1770    -2.1770 c3         1 LBY      -0.107767
      4 C3          -7.9260    50.1280    -4.0890 c3         1 LBY      -0.107767
      5 O2          -6.9170    48.7590    -2.4540 os         1 LBY      -0.435900
      6 CZ          -6.4600    48.2760    -1.2530 c          1 LBY       0.763100
      7 O1          -6.5180    48.8350    -0.1700 o          1 LBY      -0.629000
      8 NZ          -5.8770    47.0450    -1.4000 ns         1 LBY      -0.567900
      9 CE          -5.7880    46.2700    -2.6430 c3         1 LBY       0.111000
     10 CD          -7.1240    45.5840    -3.0010 c3         1 LBY      -0.103400
     11 CG          -7.0420    44.7510    -4.2990 c3         1 LBY      -0.067400
     12 CB          -8.3820    44.0640    -4.6620 c3         1 LBY      -0.029400
     13 CA          -8.3540    43.2020    -5.9550 c3         1 LBY       0.021500
     14 C           -8.1380    44.1140    -7.2500 c          1 LBY       0.928600
     15 OXT         -9.1300    44.5800    -7.8040 o          1 LBY      -0.837300
     16 O           -7.0150    44.2150    -7.7400 o          1 LBY      -0.837300
     17 N           -7.4680    41.9900    -5.7690 n8         1 LBY      -0.892800
     18 H11         -8.7090    50.0660    -0.6780 hc         1 LBY       0.047033
     19 H12         -9.5350    50.8650    -2.0160 hc         1 LBY       0.047033
     20 H13         -9.4760    49.0940    -1.9540 hc         1 LBY       0.047033
     21 H21         -6.4800    51.2200    -1.0940 hc         1 LBY       0.047033
     22 H22         -5.6570    51.0580    -2.6610 hc         1 LBY       0.047033
     23 H23         -7.0470    52.1460    -2.4830 hc         1 LBY       0.047033
     24 H31         -8.4520    51.0640    -4.3130 hc         1 LBY       0.047033
     25 H32         -7.0110    50.1010    -4.6930 hc         1 LBY       0.047033
     26 H33         -8.5660    49.2950    -4.4030 hc         1 LBY       0.047033
     27 HZ1         -5.5090    46.6390    -0.5500 hn         1 LBY       0.316500
     28 HE2         -5.0100    45.5050    -2.5170 h1         1 LBY       0.052200
     29 HE3         -5.4760    46.9310    -3.4630 h1         1 LBY       0.052200
     30 HD2         -7.9080    46.3430    -3.1120 hc         1 LBY       0.033700
     31 HD3         -7.4240    44.9320    -2.1710 hc         1 LBY       0.033700
     32 HG2         -6.2600    43.9900    -4.1860 hc         1 LBY       0.056200
     33 HG3         -6.7330    45.4070    -5.1220 hc         1 LBY       0.056200
     34 HB2         -9.1560    44.8340    -4.7720 hc         1 LBY       0.014200
     35 HB3         -8.6970    43.4330    -3.8210 hc         1 LBY       0.014200
     36 HA          -9.3650    42.7840    -6.0600 h1         1 LBY      -0.003300
     37 H           -7.8100    41.4370    -4.9770 hn         1 LBY       0.324300
     38 H2          -7.5650    41.3710    -6.5810 hn         1 LBY       0.324300
@<TRIPOS>BOND
     1     1     2 1   
     2     1    18 1   
     3     1    19 1   
     4     1    20 1   
     5     2     3 1   
     6     2     4 1   
     7     2     5 1   
     8     3    21 1   
     9     3    22 1   
    10     3    23 1   
    11     4    24 1   
    12     4    25 1   
    13     4    26 1   
    14     5     6 1   
    15     6     7 2   
    16     6     8 1   
    17     8     9 1   
    18     8    27 1   
    19     9    10 1   
    20     9    28 1   
    21     9    29 1   
    22    10    11 1   
    23    10    30 1   
    24    10    31 1   
    25    11    12 1   
    26    11    32 1   
    27    11    33 1   
    28    12    13 1   
    29    12    34 1   
    30    12    35 1   
    31    13    14 1   
    32    13    17 1   
    33    13    36 1   
    34    14    15 1   
    35    14    16 1   
    36    17    37 1   
    37    17    38 1   
@<TRIPOS>SUBSTRUCTURE
     1 LBY         1 TEMP              0 ****  ****    0 ROOT
