@<TRIPOS>MOLECULE
LBZ
   35    35     1     0     0
SMALL
No Charge or Current Charge


@<TRIPOS>ATOM
      1 C4          12.1940     0.7920    15.9000 ca         1 LBZ      -0.125000
      2 C5          13.3990     0.3130    15.3650 ca         1 LBZ      -0.102000
      3 C6          13.6690    -1.0630    15.3800 ca         1 LBZ      -0.125000
      4 C11          5.9840    -2.1870    16.0550 c3         1 LBZ      -0.050400
      5 C8           8.2960    -2.7830    18.1680 c3         1 LBZ       0.101000
      6 C9           7.0260    -1.9510    18.4550 c3         1 LBZ      -0.096400
      7 C10          6.4020    -1.2490    17.2190 c3         1 LBZ      -0.059400
      8 N1           9.3680    -1.9760    17.5850 ns         1 LBZ      -0.489900
      9 C3          11.2570    -0.1000    16.4510 ca         1 LBZ      -0.074000
     10 N            4.6940    -4.1700    15.2320 n8         1 LBZ      -1.001200
     11 CA           4.9240    -3.2660    16.4170 c3         1 LBZ       0.015500
     12 C            3.6210    -2.6210    17.0520 c          1 LBZ       0.688000
     13 O            3.3200    -2.9290    18.1970 o          1 LBZ      -0.737000
     14 C1          12.7360    -1.9600    15.9290 ca         1 LBZ      -0.074000
     15 C2          11.5160    -1.4940    16.4730 ca         1 LBZ      -0.135600
     16 O1          10.7500    -3.6960    17.0650 o          1 LBZ      -0.617100
     17 O2           2.8960    -1.9430    16.3340 o          1 LBZ      -0.737000
     18 H1          11.9830     1.8600    15.8890 ha         1 LBZ       0.108500
     19 H2          14.1220     1.0070    14.9400 ha         1 LBZ       0.105000
     20 H3          14.6020    -1.4380    14.9660 ha         1 LBZ       0.108500
     21 H4           5.5900    -1.5640    15.2430 hc         1 LBZ       0.027700
     22 H5           6.8800    -2.6770    15.6550 hc         1 LBZ       0.027700
     23 H6           8.0520    -3.6060    17.4830 h1         1 LBZ       0.051700
     24 H7           8.6600    -3.2230    19.1060 h1         1 LBZ       0.051700
     25 H8           7.2710    -1.1880    19.2030 hc         1 LBZ       0.055700
     26 H9           6.2780    -2.6020    18.9210 hc         1 LBZ       0.055700
     27 H10          7.1140    -0.5110    16.8300 hc         1 LBZ       0.029700
     28 H11          5.5280    -0.6740    17.5490 hc         1 LBZ       0.029700
     29 H12          9.2530    -0.9730    17.5520 hn         1 LBZ       0.314500
     30 H13         10.3350     0.3110    16.8540 ha         1 LBZ       0.124500
     31 H14          4.0400    -4.9150    15.5020 hn         1 LBZ       0.381500
     32 H15          4.1680    -3.6430    14.5230 hn         1 LBZ       0.381500
     33 H17          5.3640    -3.9020    17.1980 h1         1 LBZ       0.036700
     34 H18         12.9660    -3.0240    15.9300 ha         1 LBZ       0.124500
     35 C7          10.5320    -2.4910    17.0570 c          1 LBZ       0.603700
@<TRIPOS>BOND
     1     1     2 ar  
     2     1     9 ar  
     3     1    18 1   
     4     2     3 ar  
     5     2    19 1   
     6     3    14 ar  
     7     3    20 1   
     8     4     7 1   
     9     4    11 1   
    10     4    21 1   
    11     4    22 1   
    12     5     6 1   
    13     5     8 1   
    14     5    23 1   
    15     5    24 1   
    16     6     7 1   
    17     6    25 1   
    18     6    26 1   
    19     7    27 1   
    20     7    28 1   
    21     8    29 1   
    22     8    35 1   
    23     9    15 ar  
    24     9    30 1   
    25    10    11 1   
    26    10    31 1   
    27    10    32 1   
    28    11    12 1   
    29    11    33 1   
    30    12    13 1   
    31    12    17 1   
    32    14    15 ar  
    33    14    34 1   
    34    15    35 1   
    35    16    35 2   
@<TRIPOS>SUBSTRUCTURE
     1 LBZ         1 TEMP              0 ****  ****    0 ROOT
