@<TRIPOS>MOLECULE
LBZ
   35    35     1     0     0
SMALL
abcg2


@<TRIPOS>ATOM
      1 C4          12.4500     0.7280    16.3040 ca         1 LBZ      -0.125000
      2 C5          13.3670     0.2080    15.4000 ca         1 LBZ      -0.102000
      3 C6          13.3240    -1.1420    15.0760 ca         1 LBZ      -0.125000
      4 C11          6.0230    -2.2260    16.0250 c3         1 LBZ      -0.050400
      5 C8           8.2200    -2.6280    18.1700 c3         1 LBZ       0.101000
      6 C9           6.9710    -1.7880    18.3840 c3         1 LBZ      -0.096400
      7 C10          6.3510    -1.2080    17.1140 c3         1 LBZ      -0.059400
      8 N1           9.2740    -1.8500    17.5510 ns         1 LBZ      -0.489900
      9 C3          11.4870    -0.0940    16.8710 ca         1 LBZ      -0.074000
     10 N            4.9140    -4.2410    15.2670 n8         1 LBZ      -1.001200
     11 CA           5.0810    -3.3650    16.4270 c3         1 LBZ       0.015500
     12 C            3.7570    -2.7860    16.9790 c          1 LBZ       0.688000
     13 O            3.6180    -2.7540    18.2200 o          1 LBZ      -0.737000
     14 C1          12.3680    -1.9650    15.6500 ca         1 LBZ      -0.074000
     15 C2          11.4320    -1.4480    16.5440 ca         1 LBZ      -0.135600
     16 O1          10.6640    -3.5890    17.2210 o          1 LBZ      -0.617100
     17 O2           2.9410    -2.3720    16.1290 o          1 LBZ      -0.737000
     18 H1          12.4860     1.7760    16.5730 ha         1 LBZ       0.108500
     19 H2          14.1150     0.8510    14.9560 ha         1 LBZ       0.105000
     20 H3          14.0380    -1.5550    14.3750 ha         1 LBZ       0.108500
     21 H4           5.5750    -1.6920    15.1810 hc         1 LBZ       0.027700
     22 H5           6.9480    -2.6680    15.6410 hc         1 LBZ       0.027700
     23 H6           7.9880    -3.4940    17.5460 h1         1 LBZ       0.051700
     24 H7           8.5620    -3.0180    19.1320 h1         1 LBZ       0.051700
     25 H8           7.1990    -0.9720    19.0770 hc         1 LBZ       0.055700
     26 H9           6.2330    -2.4140    18.8890 hc         1 LBZ       0.055700
     27 H10          7.0140    -0.4520    16.6830 hc         1 LBZ       0.029700
     28 H11          5.4480    -0.6620    17.3980 hc         1 LBZ       0.029700
     29 H12          9.1080    -0.8680    17.4030 hn         1 LBZ       0.314500
     30 H13         10.8000     0.3350    17.5910 ha         1 LBZ       0.124500
     31 H14          4.3810    -5.0570    15.5470 hn         1 LBZ       0.381500
     32 H15          4.3160    -3.7570    14.6060 hn         1 LBZ       0.381500
     33 H17          5.5590    -3.9590    17.2130 h1         1 LBZ       0.036700
     34 H18         12.3440    -3.0180    15.3990 ha         1 LBZ       0.124500
     35 C7          10.4300    -2.3900    17.1370 c          1 LBZ       0.603700
@<TRIPOS>BOND
     1     1     2 ar  
     2     1     9 ar  
     3     1    18 1   
     4     2     3 ar  
     5     2    19 1   
     6     3    14 ar  
     7     3    20 1   
     8     4     7 1   
     9     4    11 1   
    10     4    21 1   
    11     4    22 1   
    12     5     6 1   
    13     5     8 1   
    14     5    23 1   
    15     5    24 1   
    16     6     7 1   
    17     6    25 1   
    18     6    26 1   
    19     7    27 1   
    20     7    28 1   
    21     8    29 1   
    22     8    35 1   
    23     9    15 ar  
    24     9    30 1   
    25    10    11 1   
    26    10    31 1   
    27    10    32 1   
    28    11    12 1   
    29    11    33 1   
    30    12    13 1   
    31    12    17 1   
    32    14    15 ar  
    33    14    34 1   
    34    15    35 1   
    35    16    35 2   
@<TRIPOS>SUBSTRUCTURE
     1 LBZ         1 TEMP              0 ****  ****    0 ROOT
