@<TRIPOS>MOLECULE
LC0
   57    60     1     0     0
SMALL
No Charge or Current Charge


@<TRIPOS>ATOM
      1 C4          -6.6670    -1.6140    -0.6380 ca         1 LC0      -0.046500
      2 C5          -6.6980    -0.1770     1.3240 ca         1 LC0      -0.046500
      3 C6          -8.0310    -1.3490    -0.8500 ca         1 LC0      -0.177500
      4 C7          -8.0630     0.0880     1.1110 ca         1 LC0      -0.177500
      5 C8          -0.2560     0.6660    -0.6790 ca         1 LC0      -0.207000
      6 C10         -1.6040    -1.2830     0.7100 ca         1 LC0       0.274900
      7 C15         -5.9950    -1.0310     0.4530 ca         1 LC0      -0.135300
      8 C17          0.4120    -0.3290     0.0550 ca         1 LC0       0.339300
      9 C20         -2.3630    -0.3200     0.0010 ca         1 LC0       0.067100
     10 C21          6.0030     0.3930     0.5940 ca         1 LC0       0.393500
     11 C22          4.2830     2.2210     1.6120 ca         1 LC0       0.540900
     12 C1           8.0120    -3.5820    -1.6450 c3         1 LC0       0.072900
     13 C2         -10.8830     0.5760     0.5860 c3         1 LC0       0.147900
     14 C3          -1.7400     2.6790    -2.1610 c3         1 LC0       0.144900
     15 C9           8.3760    -0.5450     0.1010 cc         1 LC0       0.257900
     16 C11          6.4380     1.5760     1.2790 ca         1 LC0       0.301900
     17 C12          6.6170    -1.7080    -0.5980 cd         1 LC0      -0.126000
     18 C16         -8.7350    -0.5000     0.0180 ca         1 LC0       0.153100
     19 C18         -1.6660     0.6780    -0.7110 ca         1 LC0       0.143100
     20 C19          6.9750    -0.5670     0.0630 cc         1 LC0      -0.263500
     21 C23          3.8100     1.0310     0.9180 ca         1 LC0       0.507300
     22 N25         -0.2510    -1.2930     0.7400 nb         1 LC0      -0.661000
     23 N26          5.5820     2.5060     1.7950 nb         1 LC0      -0.703000
     24 N27          8.9350    -1.5850    -0.4830 nd         1 LC0      -0.527800
     25 N28          4.6810     0.1150     0.4080 nb         1 LC0      -0.720000
     26 N29          7.8350    -2.3140    -0.9220 na         1 LC0       0.130800
     27 O30        -10.0720    -0.2770    -0.2420 os         1 LC0      -0.340100
     28 O31         -2.3820     1.6310    -1.4130 os         1 LC0      -0.313100
     29 O32         -3.7500    -0.3260    -0.0190 os         1 LC0      -0.317100
     30 O33          2.4480     0.8240     0.7580 os         1 LC0      -0.472300
     31 H4          -6.1340    -2.2720    -1.3210 ha         1 LC0       0.115500
     32 H5          -6.1870     0.2820     2.1670 ha         1 LC0       0.115500
     33 H6          -8.5450    -1.8020    -1.6940 ha         1 LC0       0.124000
     34 H7          -8.5780     0.7500     1.8010 ha         1 LC0       0.124000
     35 H8           0.3340     1.4100    -1.2050 ha         1 LC0       0.132000
     36 H10         -2.0850    -2.0790     1.2770 h4         1 LC0       0.024100
     37 H13         -4.3020    -1.2800     1.7610 h1         1 LC0       0.039700
     38 H13A        -4.2770    -2.3240     0.3210 h1         1 LC0       0.039700
     39 H1           8.5840    -3.4030    -2.5630 h1         1 LC0       0.057033
     40 H1A          8.5530    -4.2930    -1.0100 h1         1 LC0       0.057033
     41 H1B          7.0320    -4.0010    -1.9040 h1         1 LC0       0.057033
     42 H2         -11.9100     0.6130     0.2030 h1         1 LC0       0.042033
     43 H2A        -10.9180     0.1990     1.6170 h1         1 LC0       0.042033
     44 H2B        -10.4870     1.5990     0.5980 h1         1 LC0       0.042033
     45 H3          -1.1010     2.2610    -2.9490 h1         1 LC0       0.043700
     46 H3A         -2.4920     3.3200    -2.6380 h1         1 LC0       0.043700
     47 H3B         -1.1260     3.3080    -1.5030 h1         1 LC0       0.043700
     48 H9           9.0140     0.2080     0.5450 h4         1 LC0       0.038100
     49 H11          7.4990     1.7800     1.4160 h4         1 LC0       0.030100
     50 H12          5.6490    -2.1240    -0.8550 h4         1 LC0       0.165000
     51 H14          2.2690    -1.2670     0.6350 h1         1 LC0       0.067200
     52 H14A         2.3190    -0.4290    -0.9260 h1         1 LC0       0.067200
     53 HN24         2.5470     3.2680     1.8740 hn         1 LC0       0.476000
     54 HN2A         3.9950     4.0800     2.3780 hn         1 LC0       0.476000
     55 C13         -4.5180    -1.3160     0.6850 c3         1 LC0       0.214900
     56 C14          1.9420    -0.3640     0.1030 c3         1 LC0       0.123300
     57 N24          3.5210     3.2110     2.1590 nv         1 LC0      -1.040900
@<TRIPOS>BOND
     1     1     3 ar  
     2     1     7 ar  
     3     1    31 1   
     4     2     4 ar  
     5     2     7 ar  
     6     2    32 1   
     7     3    18 ar  
     8     3    33 1   
     9     4    18 ar  
    10     4    34 1   
    11     5     8 ar  
    12     5    19 ar  
    13     5    35 1   
    14     6     9 ar  
    15     6    22 ar  
    16     6    36 1   
    17     7    55 1   
    18     8    22 ar  
    19     8    56 1   
    20     9    19 ar  
    21     9    29 1   
    22    10    16 ar  
    23    10    20 1   
    24    10    25 ar  
    25    11    21 ar  
    26    11    23 ar  
    27    11    57 1   
    28    12    26 1   
    29    12    39 1   
    30    12    40 1   
    31    12    41 1   
    32    13    27 1   
    33    13    42 1   
    34    13    43 1   
    35    13    44 1   
    36    14    28 1   
    37    14    45 1   
    38    14    46 1   
    39    14    47 1   
    40    15    20 1   
    41    15    24 2   
    42    15    48 1   
    43    16    23 ar  
    44    16    49 1   
    45    17    20 2   
    46    17    26 1   
    47    17    50 1   
    48    18    27 1   
    49    19    28 1   
    50    21    25 ar  
    51    21    30 1   
    52    24    26 1   
    53    29    55 1   
    54    30    56 1   
    55    37    55 1   
    56    38    55 1   
    57    51    56 1   
    58    52    56 1   
    59    53    57 1   
    60    54    57 1   
@<TRIPOS>SUBSTRUCTURE
     1 LC0         1 TEMP              0 ****  ****    0 ROOT
