@<TRIPOS>MOLECULE
LC0
   57    60     1     0     0
SMALL
abcg2


@<TRIPOS>ATOM
      1 C4          -6.3350    -0.7760    -0.9920 ca         1 LC0      -0.046500
      2 C5          -6.6560    -0.8670     1.3710 ca         1 LC0      -0.046500
      3 C6          -7.6740    -0.4990    -1.1710 ca         1 LC0      -0.177500
      4 C7          -8.0110    -0.5950     1.2120 ca         1 LC0      -0.177500
      5 C8          -0.2150     0.9660    -0.4030 ca         1 LC0      -0.207000
      6 C10         -1.5170    -1.2100     0.5610 ca         1 LC0       0.274900
      7 C15         -5.8020    -0.9660     0.2840 ca         1 LC0      -0.135300
      8 C17          0.4510    -0.1530     0.0980 ca         1 LC0       0.339300
      9 C20         -2.2780    -0.1520     0.0990 ca         1 LC0       0.067100
     10 C21          5.9210     0.4430     0.2950 ca         1 LC0       0.393500
     11 C22          4.2580     2.5150     0.7930 ca         1 LC0       0.540900
     12 C1           7.6310    -4.0990    -0.7690 c3         1 LC0       0.072900
     13 C2         -10.7360    -0.0980     0.7410 c3         1 LC0       0.147900
     14 C3          -1.7300     3.1270    -1.3760 c3         1 LC0       0.144900
     15 C9           8.2030    -0.7640     0.0570 cc         1 LC0       0.257900
     16 C11          6.3810     1.7070     0.5900 ca         1 LC0       0.301900
     17 C12          6.4080    -1.9740    -0.3000 cd         1 LC0      -0.126000
     18 C16         -8.5280    -0.4080    -0.0660 ca         1 LC0       0.153100
     19 C18         -1.5980     0.9780    -0.4020 ca         1 LC0       0.143100
     20 C19          6.7950    -0.6900     0.0330 cc         1 LC0      -0.263500
     21 C23          3.7860     1.2020     0.4880 ca         1 LC0       0.507300
     22 N25         -0.1820    -1.2100     0.5680 nb         1 LC0      -0.661000
     23 N26          5.5530     2.7300     0.8310 nb         1 LC0      -0.703000
     24 N27          8.6270    -1.9780    -0.2350 nd         1 LC0      -0.527800
     25 N28          4.5910     0.2190     0.2460 nb         1 LC0      -0.720000
     26 N29          7.5290    -2.6960    -0.4500 na         1 LC0       0.130800
     27 O30         -9.8190    -0.1430    -0.3340 os         1 LC0      -0.340100
     28 O31         -2.3640     1.9760    -0.8420 os         1 LC0      -0.313100
     29 O32         -3.6190    -0.0930     0.0850 os         1 LC0      -0.317100
     30 O33          2.4600     1.0420     0.4680 os         1 LC0      -0.472300
     31 H4          -5.6930    -0.8530    -1.8620 ha         1 LC0       0.115500
     32 H5          -6.2690    -1.0070     2.3740 ha         1 LC0       0.115500
     33 H6          -8.0760    -0.3550    -2.1670 ha         1 LC0       0.124000
     34 H7          -8.6380    -0.5310     2.0910 ha         1 LC0       0.124000
     35 H8           0.3490     1.8010    -0.7920 ha         1 LC0       0.132000
     36 H10         -1.9900    -2.1020     0.9560 h4         1 LC0       0.024100
     37 H13         -4.1370    -1.5180     1.5080 h1         1 LC0       0.039700
     38 H13A        -4.0360    -2.1050    -0.1560 h1         1 LC0       0.039700
     39 H1           8.3000    -4.2420    -1.6150 h1         1 LC0       0.057033
     40 H1A          8.0080    -4.6600     0.0850 h1         1 LC0       0.057033
     41 H1B          6.6460    -4.4750    -1.0300 h1         1 LC0       0.057033
     42 H2         -11.7140     0.0900     0.3060 h1         1 LC0       0.042033
     43 H2A        -10.7710    -1.0440     1.2870 h1         1 LC0       0.042033
     44 H2B        -10.5040     0.7060     1.4450 h1         1 LC0       0.042033
     45 H3          -1.1230     2.8840    -2.2500 h1         1 LC0       0.043700
     46 H3A         -2.5260     3.8030    -1.6750 h1         1 LC0       0.043700
     47 H3B         -1.1030     3.6230    -0.6320 h1         1 LC0       0.043700
     48 H9           8.9150     0.0180     0.2730 h4         1 LC0       0.038100
     49 H11          7.4410     1.9260     0.6350 h4         1 LC0       0.030100
     50 H12          5.4290    -2.4030    -0.4400 h4         1 LC0       0.165000
     51 H14          2.2840    -1.0100     0.7740 h1         1 LC0       0.067200
     52 H14A         2.3160    -0.4930    -0.9120 h1         1 LC0       0.067200
     53 HN24         2.4460     3.4490     0.7480 hn         1 LC0       0.476000
     54 HN2A         3.7690     4.4520     1.0610 hn         1 LC0       0.476000
     55 C13         -4.3460    -1.2570     0.4650 c3         1 LC0       0.214900
     56 C14          1.9510    -0.2300     0.0860 c3         1 LC0       0.123300
     57 N24          3.3900     3.5190     1.0900 nv         1 LC0      -1.040900
@<TRIPOS>BOND
     1     1     3 ar  
     2     1     7 ar  
     3     1    31 1   
     4     2     4 ar  
     5     2     7 ar  
     6     2    32 1   
     7     3    18 ar  
     8     3    33 1   
     9     4    18 ar  
    10     4    34 1   
    11     5     8 ar  
    12     5    19 ar  
    13     5    35 1   
    14     6     9 ar  
    15     6    22 ar  
    16     6    36 1   
    17     7    55 1   
    18     8    22 ar  
    19     8    56 1   
    20     9    19 ar  
    21     9    29 1   
    22    10    16 ar  
    23    10    20 1   
    24    10    25 ar  
    25    11    21 ar  
    26    11    23 ar  
    27    11    57 1   
    28    12    26 1   
    29    12    39 1   
    30    12    40 1   
    31    12    41 1   
    32    13    27 1   
    33    13    42 1   
    34    13    43 1   
    35    13    44 1   
    36    14    28 1   
    37    14    45 1   
    38    14    46 1   
    39    14    47 1   
    40    15    20 1   
    41    15    24 2   
    42    15    48 1   
    43    16    23 ar  
    44    16    49 1   
    45    17    20 2   
    46    17    26 1   
    47    17    50 1   
    48    18    27 1   
    49    19    28 1   
    50    21    25 ar  
    51    21    30 1   
    52    24    26 1   
    53    29    55 1   
    54    30    56 1   
    55    37    55 1   
    56    38    55 1   
    57    51    56 1   
    58    52    56 1   
    59    53    57 1   
    60    54    57 1   
@<TRIPOS>SUBSTRUCTURE
     1 LC0         1 TEMP              0 ****  ****    0 ROOT
