@<TRIPOS>MOLECULE
LC1
   26    28     1     0     0
SMALL
abcg2


@<TRIPOS>ATOM
      1 CAH         -3.9530    -1.2620    -0.0720 cc         1 LC1      -0.214000
      2 SAI         -5.6360    -1.0020    -0.0420 ss         1 LC1       0.013600
      3 CAR         -5.3590     0.6920     0.0610 cc         1 LC1       0.411300
      4 NAQ         -4.1140     1.0360     0.0710 nd         1 LC1      -0.646000
      5 CAP         -3.3070    -0.0640    -0.0040 cd         1 LC1       0.247700
      6 CAO         -1.8670     0.1140    -0.0030 cd         1 LC1       0.384800
      7 NAN         -1.3120     1.3550     0.0490 na         1 LC1      -0.288600
      8 CAM          0.0400     1.1930     0.0360 ca         1 LC1      -0.034200
      9 CAL          1.0980     2.0920     0.0640 ca         1 LC1      -0.129000
     10 CAK          2.3720     1.5600     0.0290 ca         1 LC1      -0.018000
     11 CAD          2.5630     0.1720    -0.0230 ca         1 LC1      -0.296500
     12 SAC          4.2110    -0.4640    -0.0400 sy         1 LC1       1.123600
     13 OAA          4.2230    -1.7770    -0.6700 o          1 LC1      -0.545500
     14 OAJ          5.0900     0.5680    -0.5760 o          1 LC1      -0.545500
     15 NAB          4.4710    -0.7420     1.5720 n8         1 LC1      -0.995100
     16 CAE          1.5140    -0.7310    -0.0510 ca         1 LC1       0.075000
     17 CAF          0.2290    -0.2030    -0.0240 ca         1 LC1       0.043400
     18 NAG         -0.9810    -0.8430    -0.0480 nc         1 LC1      -0.558100
     19 HAH         -3.5250    -2.2490    -0.1420 h4         1 LC1       0.185000
     20 HAR         -6.1820     1.3900     0.1130 h5         1 LC1       0.058100
     21 HNAN        -1.8220     2.2240     0.0920 hn         1 LC1       0.379000
     22 HAL          0.9430     3.1610     0.1040 ha         1 LC1       0.125000
     23 HAK          3.2220     2.2280     0.0380 ha         1 LC1       0.133000
     24 HNAB         4.6110     0.1180     2.0930 hn         1 LC1       0.469000
     25 HNAA         5.2650    -1.3610     1.7120 hn         1 LC1       0.469000
     26 HAE          1.6730    -1.8000    -0.0940 ha         1 LC1       0.155000
@<TRIPOS>BOND
     1     1     2 1   
     2     1     5 2   
     3     1    19 1   
     4     2     3 1   
     5     3     4 2   
     6     3    20 1   
     7     4     5 1   
     8     5     6 1   
     9     6     7 1   
    10     6    18 2   
    11     7     8 1   
    12     7    21 1   
    13     8     9 ar  
    14     8    17 ar  
    15     9    10 ar  
    16     9    22 1   
    17    10    11 ar  
    18    10    23 1   
    19    11    12 1   
    20    11    16 ar  
    21    12    13 2   
    22    12    14 2   
    23    12    15 1   
    24    15    24 1   
    25    15    25 1   
    26    16    17 ar  
    27    16    26 1   
    28    17    18 1   
@<TRIPOS>SUBSTRUCTURE
     1 LC1         1 TEMP              0 ****  ****    0 ROOT
