@<TRIPOS>MOLECULE
LC1
   26    28     1     0     0
SMALL
No Charge or Current Charge


@<TRIPOS>ATOM
      1 CAH         -3.9070    -1.1890    -0.0510 cc         1 LC1      -0.214000
      2 SAI         -5.6440    -1.0710    -0.0330 ss         1 LC1       0.013600
      3 CAR         -5.4650     0.6640     0.0590 cc         1 LC1       0.411300
      4 NAQ         -4.2200     1.1320     0.0750 nd         1 LC1      -0.646000
      5 CAP         -3.3280     0.0610     0.0120 cd         1 LC1       0.247700
      6 CAO         -1.8770     0.1830     0.0090 cd         1 LC1       0.384800
      7 NAN         -1.2700     1.4450     0.0720 na         1 LC1      -0.288600
      8 CAM          0.0650     1.1580     0.0480 ca         1 LC1      -0.034200
      9 CAL          1.1500     2.0420     0.0880 ca         1 LC1      -0.129000
     10 CAK          2.4500     1.4970     0.0500 ca         1 LC1      -0.018000
     11 CAD          2.6280     0.0900    -0.0260 ca         1 LC1      -0.296500
     12 SAC          4.2700    -0.6170    -0.0760 sy         1 LC1       1.123600
     13 OAA          4.2360    -1.9500    -0.6780 o          1 LC1      -0.545500
     14 OAJ          5.2450     0.4030    -0.4550 o          1 LC1      -0.545500
     15 NAB          4.5690    -0.8710     1.5120 n8         1 LC1      -0.995100
     16 CAE          1.5030    -0.7680    -0.0650 ca         1 LC1       0.075000
     17 CAF          0.2190    -0.1980    -0.0260 ca         1 LC1       0.043400
     18 NAG         -1.0050    -0.8490    -0.0520 nc         1 LC1      -0.558100
     19 HAH         -3.4290    -2.1580    -0.1060 h4         1 LC1       0.185000
     20 HAR         -6.3540     1.2810     0.0980 h5         1 LC1       0.058100
     21 HNAN        -1.7380     2.3400     0.1230 hn         1 LC1       0.379000
     22 HAL          0.9980     3.1170     0.1460 ha         1 LC1       0.125000
     23 HAK          3.3090     2.1660     0.0780 ha         1 LC1       0.133000
     24 HNAB         3.9540    -0.1960     1.9600 hn         1 LC1       0.469000
     25 HNAA         5.4940    -0.4580     1.6050 hn         1 LC1       0.469000
     26 HAE          1.6140    -1.8490    -0.1220 ha         1 LC1       0.155000
@<TRIPOS>BOND
     1     1     2 1   
     2     1     5 2   
     3     1    19 1   
     4     2     3 1   
     5     3     4 2   
     6     3    20 1   
     7     4     5 1   
     8     5     6 1   
     9     6     7 1   
    10     6    18 2   
    11     7     8 1   
    12     7    21 1   
    13     8     9 ar  
    14     8    17 ar  
    15     9    10 ar  
    16     9    22 1   
    17    10    11 ar  
    18    10    23 1   
    19    11    12 1   
    20    11    16 ar  
    21    12    13 2   
    22    12    14 2   
    23    12    15 1   
    24    15    24 1   
    25    15    25 1   
    26    16    17 ar  
    27    16    26 1   
    28    17    18 1   
@<TRIPOS>SUBSTRUCTURE
     1 LC1         1 TEMP              0 ****  ****    0 ROOT
