@<TRIPOS>MOLECULE
LC2
   66    67     1     0     0
SMALL
abcg2


@<TRIPOS>ATOM
      1 C1          53.3450   121.4710   111.8160 c          1 LC2       0.683100
      2 N1          56.7510   120.7980   113.2900 ns         1 LC2      -0.479900
      3 O1          52.1950   120.8850   111.5280 os         1 LC2      -0.442100
      4 C2          50.3490   122.4180   116.6010 c2         1 LC2      -0.216200
      5 O2          53.4210   122.6670   111.7170 o          1 LC2      -0.488000
      6 C3          50.2680   122.3850   115.2630 ce         1 LC2      -0.059200
      7 O3          52.3220   124.6020   118.9230 oh         1 LC2      -0.652000
      8 C4          50.0590   121.0880   114.6200 ce         1 LC2      -0.172000
      9 O4          48.2980   119.3510   112.4430 oh         1 LC2      -0.648000
     10 C5          49.8600   120.8710   113.3170 c2         1 LC2      -0.198200
     11 C6          49.6730   119.4920   112.7600 c3         1 LC2       0.211500
     12 O6          57.9890   122.6850   113.0030 o          1 LC2      -0.587100
     13 C7          50.5120   119.2150   111.5070 c3         1 LC2      -0.113400
     14 O7          59.0250   119.4700   113.7700 o          1 LC2      -0.504100
     15 C8          52.0090   119.4630   111.5900 c6         1 LC2       0.212300
     16 C9          52.6950   118.8900   112.8260 c6         1 LC2      -0.200700
     17 C10         54.1560   119.2560   112.7910 c          1 LC2       0.585100
     18 C11         52.4830   117.3910   112.9750 c3         1 LC2      -0.078100
     19 C12         54.5440   120.5980   112.1680 c6         1 LC2      -0.273000
     20 C13         50.4130   123.5850   114.3780 c3         1 LC2      -0.060900
     21 C15         55.2720   120.3090   110.8380 c3         1 LC2      -0.080100
     22 C16         57.8890   121.4930   113.2370 c          1 LC2       0.496100
     23 C17         59.1430   120.6390   113.4970 c          1 LC2       0.500100
     24 C18         60.4490   121.3520   113.3870 c3         1 LC2      -0.187100
     25 C23         55.4520   121.4150   113.1300 c3         1 LC2       0.174900
     26 C26         54.7740   121.6110   114.4550 c2         1 LC2      -0.279200
     27 C27         54.3930   122.7750   115.0020 ce         1 LC2      -0.010200
     28 C28         53.6270   122.7140   116.2450 ce         1 LC2      -0.190000
     29 C29         53.0320   123.7440   116.8490 c2         1 LC2      -0.182200
     30 C30         52.0900   123.5660   117.9930 c3         1 LC2       0.204500
     31 C31         50.6350   123.5930   117.4760 c3         1 LC2      -0.073200
     32 HN1         56.8000   119.8220   113.5450 hn         1 LC2       0.352500
     33 H2          50.2540   121.4720   117.1300 ha         1 LC2       0.163000
     34 HO3         51.7040   124.4940   119.6530 ho         1 LC2       0.443000
     35 H4          50.0820   120.2290   115.2870 ha         1 LC2       0.162000
     36 HO4         48.1580   118.4640   112.0940 ho         1 LC2       0.439000
     37 H5          49.8090   121.6950   112.6130 ha         1 LC2       0.198000
     38 H6          49.9480   118.7710   113.5430 h1         1 LC2       0.026700
     39 H7          50.3690   118.1700   111.2150 hc         1 LC2       0.065700
     40 H7A         50.1200   119.8120   110.6780 hc         1 LC2       0.065700
     41 H8          52.4610   119.0260   110.6920 h1         1 LC2       0.053700
     42 H9          52.2880   119.4110   113.7070 hc         1 LC2       0.097700
     43 H11         53.0440   117.0030   113.8220 hc         1 LC2       0.048700
     44 H11A        51.4330   117.1590   113.1460 hc         1 LC2       0.048700
     45 H11B        52.8040   116.8560   112.0810 hc         1 LC2       0.048700
     46 H13         51.2690   123.4650   113.7100 hc         1 LC2       0.048033
     47 H13A        49.5330   123.7190   113.7440 hc         1 LC2       0.048033
     48 H13B        50.5580   124.5040   114.9390 hc         1 LC2       0.048033
     49 H14         55.0570   124.7990   115.1710 hc         1 LC2       0.054033
     50 H14A        55.3680   124.1000   113.5920 hc         1 LC2       0.054033
     51 H14B        53.7320   124.5760   114.0410 hc         1 LC2       0.054033
     52 H15         56.1230   119.6520   111.0040 hc         1 LC2       0.055700
     53 H15A        54.6190   119.8280   110.1090 hc         1 LC2       0.055700
     54 H15B        55.6350   121.2410   110.4050 hc         1 LC2       0.055700
     55 H18         61.2750   120.6680   113.5670 hc         1 LC2       0.073033
     56 H18A        60.5560   121.7980   112.3970 hc         1 LC2       0.073033
     57 H18B        60.4950   122.1720   114.1050 hc         1 LC2       0.073033
     58 H23         55.6230   122.3740   112.6460 h1         1 LC2       0.107700
     59 H26         54.5530   120.7000   115.0060 ha         1 LC2       0.169000
     60 H28         53.4890   121.7210   116.6640 ha         1 LC2       0.167000
     61 H29         53.1220   124.7530   116.4560 ha         1 LC2       0.189000
     62 H30         52.2640   122.5810   118.4500 h1         1 LC2       0.033700
     63 H31         50.4520   124.5450   116.9750 hc         1 LC2       0.053700
     64 H31A        49.9670   123.5590   118.3440 hc         1 LC2       0.053700
     65 O5          55.0160   118.5300   113.2300 o          1 LC2      -0.505100
     66 C14         54.6560   124.1260   114.4110 c3         1 LC2      -0.065900
@<TRIPOS>BOND
     1     1     3 1   
     2     1     5 2   
     3     1    19 1   
     4     2    22 1   
     5     2    25 1   
     6     2    32 1   
     7     3    15 1   
     8     4     6 2   
     9     4    31 1   
    10     4    33 1   
    11     6     8 1   
    12     6    20 1   
    13     7    30 1   
    14     7    34 1   
    15     8    10 2   
    16     8    35 1   
    17     9    11 1   
    18     9    36 1   
    19    10    11 1   
    20    10    37 1   
    21    11    13 1   
    22    11    38 1   
    23    12    22 2   
    24    13    15 1   
    25    13    39 1   
    26    13    40 1   
    27    14    23 2   
    28    15    16 1   
    29    15    41 1   
    30    16    17 1   
    31    16    18 1   
    32    16    42 1   
    33    17    19 1   
    34    17    65 2   
    35    18    43 1   
    36    18    44 1   
    37    18    45 1   
    38    19    21 1   
    39    19    25 1   
    40    20    46 1   
    41    20    47 1   
    42    20    48 1   
    43    21    52 1   
    44    21    53 1   
    45    21    54 1   
    46    22    23 1   
    47    23    24 1   
    48    24    55 1   
    49    24    56 1   
    50    24    57 1   
    51    25    26 1   
    52    25    58 1   
    53    26    27 2   
    54    26    59 1   
    55    27    28 1   
    56    27    66 1   
    57    28    29 2   
    58    28    60 1   
    59    29    30 1   
    60    29    61 1   
    61    30    31 1   
    62    30    62 1   
    63    31    63 1   
    64    31    64 1   
    65    49    66 1   
    66    50    66 1   
    67    51    66 1   
@<TRIPOS>SUBSTRUCTURE
     1 LC2         1 TEMP              0 ****  ****    0 ROOT
