@<TRIPOS>MOLECULE
LC2
   66    67     1     0     0
SMALL
No Charge or Current Charge


@<TRIPOS>ATOM
      1 C1          53.3200   121.5680   111.6370 c          1 LC2       0.683100
      2 N1          56.6170   120.8950   113.4950 ns         1 LC2      -0.479900
      3 O1          52.1280   120.9060   111.5270 os         1 LC2      -0.442100
      4 C2          50.2140   122.4070   116.7570 c2         1 LC2      -0.216200
      5 O2          53.3530   122.7860   111.5480 o          1 LC2      -0.488000
      6 C3          50.2000   122.2960   115.4040 ce         1 LC2      -0.059200
      7 O3          52.0620   124.9850   118.8440 oh         1 LC2      -0.652000
      8 C4          50.0200   120.9670   114.7900 ce         1 LC2      -0.172000
      9 O4          48.3400   119.0870   112.6390 oh         1 LC2      -0.648000
     10 C5          49.8700   120.7120   113.4690 c2         1 LC2      -0.198200
     11 C6          49.7270   119.3360   112.8620 c3         1 LC2       0.211500
     12 O6          58.0440   122.3370   112.4270 o          1 LC2      -0.587100
     13 C7          50.4960   119.1450   111.5270 c3         1 LC2      -0.113400
     14 O7          58.8880   119.4500   114.3700 o          1 LC2      -0.504100
     15 C8          52.0210   119.4820   111.5130 c6         1 LC2       0.212300
     16 C9          52.8510   118.8840   112.6590 c6         1 LC2      -0.200700
     17 C10         54.3110   119.2990   112.4350 c          1 LC2       0.585100
     18 C11         52.7010   117.3360   112.8390 c3         1 LC2      -0.078100
     19 C12         54.5840   120.7490   111.9890 c6         1 LC2      -0.273000
     20 C13         50.4450   123.4700   114.4600 c3         1 LC2      -0.060900
     21 C15         55.4600   120.7030   110.6860 c3         1 LC2      -0.080100
     22 C16         57.8760   121.3340   113.1180 c          1 LC2       0.496100
     23 C17         59.0840   120.4320   113.6540 c          1 LC2       0.500100
     24 C18         60.5020   120.8370   113.2390 c3         1 LC2      -0.187100
     25 C23         55.3540   121.5230   113.1160 c3         1 LC2       0.174900
     26 C26         54.5460   121.7120   114.3850 c2         1 LC2      -0.279200
     27 C27         54.2650   122.8690   115.0300 ce         1 LC2      -0.010200
     28 C28         53.4150   122.8290   116.2330 ce         1 LC2      -0.190000
     29 C29         52.8720   123.8930   116.8730 c2         1 LC2      -0.182200
     30 C30         51.9260   123.8050   118.0500 c3         1 LC2       0.204500
     31 C31         50.4500   123.6500   117.6060 c3         1 LC2      -0.073200
     32 HN1         56.5860   120.0480   114.0540 hn         1 LC2       0.352500
     33 H2          50.0560   121.5140   117.3630 ha         1 LC2       0.163000
     34 HO3         51.4980   124.8590   119.6380 ho         1 LC2       0.443000
     35 H4          50.0190   120.1250   115.4840 ha         1 LC2       0.162000
     36 HO4         48.2570   118.1450   112.3780 ho         1 LC2       0.439000
     37 H5          49.8460   121.5140   112.7320 ha         1 LC2       0.198000
     38 H6          50.1110   118.6050   113.5860 h1         1 LC2       0.026700
     39 H7          50.3670   118.1050   111.2070 hc         1 LC2       0.065700
     40 H7A         50.0020   119.7470   110.7540 hc         1 LC2       0.065700
     41 H8          52.4300   119.1250   110.5550 h1         1 LC2       0.053700
     42 H9          52.5160   119.3950   113.5710 hc         1 LC2       0.097700
     43 H11         53.3070   116.9740   113.6780 hc         1 LC2       0.048700
     44 H11A        51.6660   117.0410   113.0470 hc         1 LC2       0.048700
     45 H11B        53.0220   116.7970   111.9390 hc         1 LC2       0.048700
     46 H13         51.1860   123.2140   113.6940 hc         1 LC2       0.048033
     47 H13A        49.5200   123.7620   113.9480 hc         1 LC2       0.048033
     48 H13B        50.8290   124.3600   114.9680 hc         1 LC2       0.048033
     49 H14         55.0040   124.8850   115.4470 hc         1 LC2       0.054033
     50 H14A        55.7910   124.1270   114.0900 hc         1 LC2       0.054033
     51 H14B        54.1350   124.7290   113.9100 hc         1 LC2       0.054033
     52 H15         56.4000   120.1570   110.8320 hc         1 LC2       0.055700
     53 H15A        54.9250   120.2070   109.8650 hc         1 LC2       0.055700
     54 H15B        55.7230   121.7110   110.3400 hc         1 LC2       0.055700
     55 H18         61.2700   120.1680   113.6430 hc         1 LC2       0.073033
     56 H18A        60.5470   120.8970   112.1460 hc         1 LC2       0.073033
     57 H18B        60.6730   121.8780   113.5340 hc         1 LC2       0.073033
     58 H23         55.5910   122.5120   112.6990 h1         1 LC2       0.107700
     59 H26         54.1390   120.7810   114.7790 ha         1 LC2       0.169000
     60 H28         53.1690   121.8300   116.5980 ha         1 LC2       0.167000
     61 H29         53.0440   124.9130   116.5330 ha         1 LC2       0.189000
     62 H30         52.1970   122.9260   118.6510 h1         1 LC2       0.033700
     63 H31         50.1250   124.5550   117.0810 hc         1 LC2       0.053700
     64 H31A        49.8220   123.5900   118.5030 hc         1 LC2       0.053700
     65 O5          55.2230   118.4880   112.5460 o          1 LC2      -0.505100
     66 C14         54.8240   124.2200   114.5940 c3         1 LC2      -0.065900
@<TRIPOS>BOND
     1     1     3 1   
     2     1     5 2   
     3     1    19 1   
     4     2    22 1   
     5     2    25 1   
     6     2    32 1   
     7     3    15 1   
     8     4     6 2   
     9     4    31 1   
    10     4    33 1   
    11     6     8 1   
    12     6    20 1   
    13     7    30 1   
    14     7    34 1   
    15     8    10 2   
    16     8    35 1   
    17     9    11 1   
    18     9    36 1   
    19    10    11 1   
    20    10    37 1   
    21    11    13 1   
    22    11    38 1   
    23    12    22 2   
    24    13    15 1   
    25    13    39 1   
    26    13    40 1   
    27    14    23 2   
    28    15    16 1   
    29    15    41 1   
    30    16    17 1   
    31    16    18 1   
    32    16    42 1   
    33    17    19 1   
    34    17    65 2   
    35    18    43 1   
    36    18    44 1   
    37    18    45 1   
    38    19    21 1   
    39    19    25 1   
    40    20    46 1   
    41    20    47 1   
    42    20    48 1   
    43    21    52 1   
    44    21    53 1   
    45    21    54 1   
    46    22    23 1   
    47    23    24 1   
    48    24    55 1   
    49    24    56 1   
    50    24    57 1   
    51    25    26 1   
    52    25    58 1   
    53    26    27 2   
    54    26    59 1   
    55    27    28 1   
    56    27    66 1   
    57    28    29 2   
    58    28    60 1   
    59    29    30 1   
    60    29    61 1   
    61    30    31 1   
    62    30    62 1   
    63    31    63 1   
    64    31    64 1   
    65    49    66 1   
    66    50    66 1   
    67    51    66 1   
@<TRIPOS>SUBSTRUCTURE
     1 LC2         1 TEMP              0 ****  ****    0 ROOT
