@<TRIPOS>MOLECULE
LC3
   55    59     1     0     0
SMALL
No Charge or Current Charge


@<TRIPOS>ATOM
      1 C1          -7.2820     0.8280    -0.7890 ca         1 LC3      -0.121600
      2 C2          -6.7450     1.9490    -0.1210 ca         1 LC3      -0.102000
      3 C3          -6.5390    -0.3720    -0.7670 ca         1 LC3      -0.102000
      4 C4          -8.6230     0.9080    -1.5060 c          1 LC3       0.714600
      5 C5          -5.5080     1.8730     0.5420 ca         1 LC3      -0.097500
      6 C6          -5.3000    -0.4450    -0.1060 ca         1 LC3      -0.097500
      7 O7          -9.0480    -0.0900    -2.0710 o          1 LC3      -0.729500
      8 O8          -9.2320     1.9690    -1.4950 o          1 LC3      -0.729500
      9 C9          -4.7510     0.6780     0.5570 ca         1 LC3      -0.083000
     10 C10         -1.8740     1.5420     3.0300 cc         1 LC3      -0.112000
     11 C11         -3.1260     1.5170     2.3110 cc         1 LC3      -0.214000
     12 C12         -3.4420     0.6190     1.2790 cd         1 LC3       0.053000
     13 N13         -2.3560    -0.2400     0.9450 na         1 LC3       0.309400
     14 C14         -1.1570    -0.1950     1.6250 cd         1 LC3      -0.133000
     15 C15         -0.8590     0.6780     2.7060 cd         1 LC3      -0.119000
     16 N16         -2.3460    -1.0880    -0.1400 nd         1 LC3      -0.524100
     17 C17         -1.1180    -1.6270    -0.0730 cc         1 LC3       0.326600
     18 C18         -0.3360    -1.1010     1.0260 cc         1 LC3      -0.278800
     19 C19         -0.6220    -2.6760    -1.0810 c          1 LC3       0.644700
     20 C20          1.0880    -1.4470     1.4020 c3         1 LC3       0.037800
     21 C21          2.1280    -0.6460     0.5900 c3         1 LC3      -0.080400
     22 C22          3.5790    -0.9840     0.9760 c3         1 LC3       0.161600
     23 O23          4.4440    -0.1650     0.1740 os         1 LC3      -0.340100
     24 O24          0.5090    -3.1440    -1.0030 o          1 LC3      -0.711000
     25 O25         -1.3790    -3.0450    -1.9770 o          1 LC3      -0.711000
     26 C26          5.8230    -0.2190     0.2740 ca         1 LC3       0.193100
     27 C27          6.4650    -1.0940     1.1790 ca         1 LC3      -0.236000
     28 C28          7.8660    -1.1280     1.2600 ca         1 LC3      -0.056000
     29 C29          8.6380    -0.2910     0.4410 ca         1 LC3      -0.170000
     30 C30          8.0140     0.5860    -0.4640 ca         1 LC3      -0.002000
     31 C31          6.6020     0.6260    -0.5530 ca         1 LC3      -0.066000
     32 C32          8.7980     1.4210    -1.2820 ca         1 LC3      -0.127000
     33 C33          8.1850     2.3000    -2.1890 ca         1 LC3      -0.100000
     34 C34          6.7860     2.3460    -2.2820 ca         1 LC3      -0.143000
     35 C35          5.9950     1.5150    -1.4700 ca         1 LC3      -0.051000
     36 H1          -7.2860     2.8930    -0.1160 ha         1 LC3       0.123000
     37 H2          -6.9250    -1.2630    -1.2570 ha         1 LC3       0.123000
     38 H3          -5.1340     2.7750     1.0170 ha         1 LC3       0.101500
     39 H4          -4.8010    -1.4080    -0.0830 ha         1 LC3       0.101500
     40 H8           0.0980     0.6900     3.2170 ha         1 LC3       0.103000
     41 H9           1.2450    -1.2390     2.4670 hc         1 LC3       0.035200
     42 H10          1.2730    -2.5210     1.2950 hc         1 LC3       0.035200
     43 H11          1.9860    -0.8400    -0.4790 hc         1 LC3       0.067200
     44 H12          1.9550     0.4260     0.7490 hc         1 LC3       0.067200
     45 H13          3.7310    -0.7790     2.0440 h1         1 LC3       0.031200
     46 H14          3.7690    -2.0490     0.7890 h1         1 LC3       0.031200
     47 H16          5.8960    -1.7550     1.8260 ha         1 LC3       0.123000
     48 H17          8.3550    -1.8040     1.9580 ha         1 LC3       0.099000
     49 H18          9.7230    -0.3240     0.5110 ha         1 LC3       0.101000
     50 H19          9.8830     1.3910    -1.2140 ha         1 LC3       0.100000
     51 H20          8.7950     2.9450    -2.8190 ha         1 LC3       0.099000
     52 H21          6.3100     3.0270    -2.9850 ha         1 LC3       0.109000
     53 H22          4.9120     1.5660    -1.5580 ha         1 LC3       0.140000
     54 H6          -1.7450     2.2650     3.8300 ha         1 LC3       0.089000
     55 H7          -3.8670     2.2310     2.6510 ha         1 LC3       0.116000
@<TRIPOS>BOND
     1     1     2 ar  
     2     1     3 ar  
     3     1     4 1   
     4     2     5 ar  
     5     2    36 1   
     6     3     6 ar  
     7     3    37 1   
     8     4     7 1   
     9     4     8 1   
    10     5     9 ar  
    11     5    38 1   
    12     6     9 ar  
    13     6    39 1   
    14     9    12 1   
    15    10    11 1   
    16    10    15 2   
    17    10    54 1   
    18    11    12 2   
    19    11    55 1   
    20    12    13 1   
    21    13    14 1   
    22    13    16 1   
    23    14    15 1   
    24    14    18 2   
    25    15    40 1   
    26    16    17 2   
    27    17    18 1   
    28    17    19 1   
    29    18    20 1   
    30    19    24 1   
    31    19    25 1   
    32    20    21 1   
    33    20    41 1   
    34    20    42 1   
    35    21    22 1   
    36    21    43 1   
    37    21    44 1   
    38    22    23 1   
    39    22    45 1   
    40    22    46 1   
    41    23    26 1   
    42    26    27 ar  
    43    26    31 ar  
    44    27    28 ar  
    45    27    47 1   
    46    28    29 ar  
    47    28    48 1   
    48    29    30 ar  
    49    29    49 1   
    50    30    31 ar  
    51    30    32 ar  
    52    31    35 ar  
    53    32    33 ar  
    54    32    50 1   
    55    33    34 ar  
    56    33    51 1   
    57    34    35 ar  
    58    34    52 1   
    59    35    53 1   
@<TRIPOS>SUBSTRUCTURE
     1 LC3         1 TEMP              0 ****  ****    0 ROOT
