@<TRIPOS>MOLECULE
LC3
   55    59     1     0     0
SMALL
abcg2


@<TRIPOS>ATOM
      1 C1          -7.0990     0.6900    -0.7740 ca         1 LC3      -0.121600
      2 C2          -6.4650     1.8820    -0.4360 ca         1 LC3      -0.102000
      3 C3          -6.4720    -0.5070    -0.4330 ca         1 LC3      -0.102000
      4 C4          -8.4430     0.6950    -1.4930 c          1 LC3       0.714600
      5 C5          -5.2450     1.8780     0.2230 ca         1 LC3      -0.097500
      6 C6          -5.2490    -0.5200     0.2150 ca         1 LC3      -0.097500
      7 O7          -8.9480    -0.4170    -1.7360 o          1 LC3      -0.729500
      8 O8          -8.9200     1.8110    -1.7720 o          1 LC3      -0.729500
      9 C9          -4.6210     0.6780     0.5600 ca         1 LC3      -0.083000
     10 C10         -1.9750     1.5340     3.1390 cc         1 LC3      -0.112000
     11 C11         -3.1880     1.5260     2.4090 cc         1 LC3      -0.214000
     12 C12         -3.3640     0.7160     1.3230 cd         1 LC3       0.053000
     13 N13         -2.3120    -0.0880     0.9580 na         1 LC3       0.309400
     14 C14         -1.1110    -0.1150     1.6430 cd         1 LC3      -0.133000
     15 C15         -0.9480     0.7220     2.7670 cd         1 LC3      -0.119000
     16 N16         -2.3090    -0.9010    -0.0890 nd         1 LC3      -0.524100
     17 C17         -1.1040    -1.4730    -0.0930 cc         1 LC3       0.326600
     18 C18         -0.3050    -1.0250     0.9710 cc         1 LC3      -0.278800
     19 C19         -0.7550    -2.4780    -1.1680 c          1 LC3       0.644700
     20 C20          1.1040    -1.3590     1.3330 c3         1 LC3       0.037800
     21 C21          2.1180    -0.5550     0.5190 c3         1 LC3      -0.080400
     22 C22          3.5380    -0.9400     0.8740 c3         1 LC3       0.161600
     23 O23          4.4160    -0.1270     0.1110 os         1 LC3      -0.340100
     24 O24          0.4090    -2.9240    -1.1410 o          1 LC3      -0.711000
     25 O25         -1.6530    -2.7690    -1.9760 o          1 LC3      -0.711000
     26 C26          5.7420    -0.2780     0.2460 ca         1 LC3       0.193100
     27 C27          6.3450    -1.2060     1.0600 ca         1 LC3      -0.236000
     28 C28          7.7520    -1.2830     1.1230 ca         1 LC3      -0.056000
     29 C29          8.5420    -0.4470     0.3890 ca         1 LC3      -0.170000
     30 C30          7.9490     0.5230    -0.4560 ca         1 LC3      -0.002000
     31 C31          6.5360     0.6170    -0.5360 ca         1 LC3      -0.066000
     32 C32          8.7360     1.4090    -1.2290 ca         1 LC3      -0.127000
     33 C33          8.1520     2.3440    -2.0400 ca         1 LC3      -0.100000
     34 C34          6.7490     2.4360    -2.1150 ca         1 LC3      -0.143000
     35 C35          5.9580     1.5920    -1.3810 ca         1 LC3      -0.051000
     36 H1          -6.9270     2.8250    -0.6940 ha         1 LC3       0.123000
     37 H2          -6.9500    -1.4460    -0.6800 ha         1 LC3       0.123000
     38 H3          -4.7660     2.8190     0.4660 ha         1 LC3       0.101500
     39 H4          -4.7890    -1.4670     0.4640 ha         1 LC3       0.101500
     40 H8          -0.0120     0.7040     3.3100 ha         1 LC3       0.103000
     41 H9           1.2610    -1.1650     2.4000 hc         1 LC3       0.035200
     42 H10          1.2800    -2.4230     1.1790 hc         1 LC3       0.035200
     43 H11          1.9420    -0.7380    -0.5420 hc         1 LC3       0.067200
     44 H12          1.9710     0.5140     0.7010 hc         1 LC3       0.067200
     45 H13          3.7220    -0.7910     1.9450 h1         1 LC3       0.031200
     46 H14          3.7090    -1.9990     0.6520 h1         1 LC3       0.031200
     47 H16          5.7600    -1.8910     1.6580 ha         1 LC3       0.123000
     48 H17          8.2020    -2.0260     1.7690 ha         1 LC3       0.099000
     49 H18          9.6220    -0.5140     0.4440 ha         1 LC3       0.101000
     50 H19          9.8150     1.3360    -1.1680 ha         1 LC3       0.100000
     51 H20          8.7670     3.0160    -2.6250 ha         1 LC3       0.099000
     52 H21          6.2920     3.1790    -2.7560 ha         1 LC3       0.109000
     53 H22          4.8830     1.6770    -1.4510 ha         1 LC3       0.140000
     54 H6          -1.8790     2.1850     3.9970 ha         1 LC3       0.089000
     55 H7          -4.0110     2.1520     2.7240 ha         1 LC3       0.116000
@<TRIPOS>BOND
     1     1     2 ar  
     2     1     3 ar  
     3     1     4 1   
     4     2     5 ar  
     5     2    36 1   
     6     3     6 ar  
     7     3    37 1   
     8     4     7 1   
     9     4     8 1   
    10     5     9 ar  
    11     5    38 1   
    12     6     9 ar  
    13     6    39 1   
    14     9    12 1   
    15    10    11 1   
    16    10    15 2   
    17    10    54 1   
    18    11    12 2   
    19    11    55 1   
    20    12    13 1   
    21    13    14 1   
    22    13    16 1   
    23    14    15 1   
    24    14    18 2   
    25    15    40 1   
    26    16    17 2   
    27    17    18 1   
    28    17    19 1   
    29    18    20 1   
    30    19    24 1   
    31    19    25 1   
    32    20    21 1   
    33    20    41 1   
    34    20    42 1   
    35    21    22 1   
    36    21    43 1   
    37    21    44 1   
    38    22    23 1   
    39    22    45 1   
    40    22    46 1   
    41    23    26 1   
    42    26    27 ar  
    43    26    31 ar  
    44    27    28 ar  
    45    27    47 1   
    46    28    29 ar  
    47    28    48 1   
    48    29    30 ar  
    49    29    49 1   
    50    30    31 ar  
    51    30    32 ar  
    52    31    35 ar  
    53    32    33 ar  
    54    32    50 1   
    55    33    34 ar  
    56    33    51 1   
    57    34    35 ar  
    58    34    52 1   
    59    35    53 1   
@<TRIPOS>SUBSTRUCTURE
     1 LC3         1 TEMP              0 ****  ****    0 ROOT
