@<TRIPOS>MOLECULE
LC4
   44    44     1     0     0
SMALL
bcc


@<TRIPOS>ATOM
      1 O1          -8.3630    -1.5130    -0.0210 o          1 LC4      -0.848800
      2 C2          -8.4440    -0.2730    -0.1270 c          1 LC4       0.927600
      3 O17         -9.4970     0.3870    -0.2560 o          1 LC4      -0.848800
      4 C3          -7.1390     0.5410    -0.0920 c3         1 LC4      -0.203400
      5 C4          -5.8490    -0.2610    -0.0360 c3         1 LC4      -0.054400
      6 C5          -4.6040     0.6180    -0.0200 c3         1 LC4      -0.079400
      7 C6          -3.3060    -0.1800     0.0130 c3         1 LC4      -0.075400
      8 C7          -2.0590     0.6950     0.0230 c3         1 LC4      -0.074400
      9 C18         -0.7620    -0.1050     0.0290 c3         1 LC4      -0.075400
     10 C19          0.4850     0.7710     0.0390 c3         1 LC4      -0.074400
     11 C8           1.7810    -0.0290     0.0180 c3         1 LC4      -0.074400
     12 C9           3.0250     0.8510     0.0330 c3         1 LC4      -0.074400
     13 C10          4.3190     0.0490    -0.0180 c3         1 LC4      -0.098400
     14 C11          5.5420     0.9550     0.0130 c3         1 LC4       0.041300
     15 N12          6.7870     0.2140    -0.0540 na         1 LC4      -0.185900
     16 C13          7.3490    -0.3320    -1.1730 cc         1 LC4      -0.265600
     17 C14          8.4620    -0.9950    -0.7380 cd         1 LC4       0.289200
     18 N15          8.5870    -0.8700     0.6160 nd         1 LC4      -0.678000
     19 C16          7.5640    -0.1440     0.9900 cc         1 LC4       0.386400
     20 H3          -7.1230     1.2020    -0.9670 hc         1 LC4       0.014200
     21 H3A         -7.1860     1.2190     0.7690 hc         1 LC4       0.014200
     22 H4          -5.8480    -0.9020     0.8510 hc         1 LC4       0.037700
     23 H4A         -5.7970    -0.9390    -0.8930 hc         1 LC4       0.037700
     24 H5          -4.6060     1.2690    -0.9020 hc         1 LC4       0.023700
     25 H5A         -4.6400     1.2880     0.8470 hc         1 LC4       0.023700
     26 H6          -3.3010    -0.8300     0.8950 hc         1 LC4       0.034700
     27 H6A         -3.2710    -0.8490    -0.8550 hc         1 LC4       0.034700
     28 H7          -2.0720     1.3550    -0.8520 hc         1 LC4       0.032700
     29 H7A         -2.0840     1.3540     0.8980 hc         1 LC4       0.032700
     30 H18         -0.7470    -0.7680     0.9020 hc         1 LC4       0.036700
     31 H18A        -0.7370    -0.7610    -0.8490 hc         1 LC4       0.036700
     32 H19          0.4620     1.4440    -0.8250 hc         1 LC4       0.035700
     33 H19A         0.4690     1.4150     0.9250 hc         1 LC4       0.035700
     34 H8           1.8070    -0.7070     0.8780 hc         1 LC4       0.039700
     35 H8A          1.8000    -0.6680    -0.8720 hc         1 LC4       0.039700
     36 H9           2.9910     1.5400    -0.8180 hc         1 LC4       0.037700
     37 H9A          3.0160     1.4770     0.9320 hc         1 LC4       0.037700
     38 H10          4.3630    -0.6440     0.8280 hc         1 LC4       0.054200
     39 H10A         4.3390    -0.5610    -0.9260 hc         1 LC4       0.054200
     40 H11          5.5160     1.6580    -0.8210 h1         1 LC4       0.058700
     41 H11A         5.5560     1.5460     0.9300 h1         1 LC4       0.058700
     42 H13          6.9250    -0.1980    -2.1540 h4         1 LC4       0.173000
     43 H14          9.1760    -1.5460    -1.3300 h4         1 LC4       0.034100
     44 H16          7.3360     0.1600     2.0010 h5         1 LC4       0.051100
@<TRIPOS>BOND
     1     1     2 1   
     2     2     3 1   
     3     2     4 1   
     4     4     5 1   
     5     4    20 1   
     6     4    21 1   
     7     5     6 1   
     8     5    22 1   
     9     5    23 1   
    10     6     7 1   
    11     6    24 1   
    12     6    25 1   
    13     7     8 1   
    14     7    26 1   
    15     7    27 1   
    16     8     9 1   
    17     8    28 1   
    18     8    29 1   
    19     9    10 1   
    20     9    30 1   
    21     9    31 1   
    22    10    11 1   
    23    10    32 1   
    24    10    33 1   
    25    11    12 1   
    26    11    34 1   
    27    11    35 1   
    28    12    13 1   
    29    12    36 1   
    30    12    37 1   
    31    13    14 1   
    32    13    38 1   
    33    13    39 1   
    34    14    15 1   
    35    14    40 1   
    36    14    41 1   
    37    15    16 1   
    38    15    19 1   
    39    16    17 2   
    40    16    42 1   
    41    17    18 1   
    42    17    43 1   
    43    18    19 2   
    44    19    44 1   
@<TRIPOS>SUBSTRUCTURE
     1 LC4         1 TEMP              0 ****  ****    0 ROOT
