@<TRIPOS>MOLECULE
LC4
   44    44     1     0     0
SMALL
No Charge or Current Charge


@<TRIPOS>ATOM
      1 O1          -8.9150    -0.8140     0.9820 o          1 LC4      -0.743500
      2 C2          -8.4750    -0.3480    -0.0580 c          1 LC4       0.717000
      3 O17         -8.9170    -0.6270    -1.1620 o          1 LC4      -0.743500
      4 C3          -7.2610     0.5950     0.0230 c3         1 LC4      -0.203400
      5 C4          -5.9460    -0.2200    -0.0500 c3         1 LC4      -0.054400
      6 C5          -4.6790     0.6620     0.0250 c3         1 LC4      -0.079400
      7 C6          -3.3690    -0.1530    -0.0480 c3         1 LC4      -0.075400
      8 C7          -2.1030     0.7290     0.0270 c3         1 LC4      -0.074400
      9 C18         -0.7930    -0.0860    -0.0460 c3         1 LC4      -0.075400
     10 C19          0.4720     0.7960     0.0290 c3         1 LC4      -0.074400
     11 C8           1.7820    -0.0180    -0.0450 c3         1 LC4      -0.074400
     12 C9           3.0470     0.8640     0.0300 c3         1 LC4      -0.074400
     13 C10          4.3570     0.0490    -0.0430 c3         1 LC4      -0.098400
     14 C11          5.6190     0.9330     0.0310 c3         1 LC4       0.070600
     15 N12          6.8630     0.1530    -0.0400 na         1 LC4      -0.164500
     16 C13          7.5150    -0.2460    -1.1870 cc         1 LC4      -0.233000
     17 C14          8.6160    -0.9430    -0.7610 cd         1 LC4       0.223900
     18 N15          8.6610    -0.9850     0.6180 nd         1 LC4      -0.678000
     19 C16          7.5920    -0.3170     1.0330 cc         1 LC4       0.386400
     20 H3          -7.2420     1.2720    -0.8400 hc         1 LC4       0.014200
     21 H3A         -7.2400     1.1120     0.9900 hc         1 LC4       0.014200
     22 H4          -5.9260    -0.9470     0.7710 hc         1 LC4       0.037700
     23 H4A         -5.9290    -0.7940    -0.9850 hc         1 LC4       0.037700
     24 H5          -4.6970     1.3890    -0.7970 hc         1 LC4       0.023700
     25 H5A         -4.6940     1.2350     0.9610 hc         1 LC4       0.023700
     26 H6          -3.3510    -0.8790     0.7740 hc         1 LC4       0.034700
     27 H6A         -3.3530    -0.7260    -0.9830 hc         1 LC4       0.034700
     28 H7          -2.1220     1.4560    -0.7950 hc         1 LC4       0.032700
     29 H7A         -2.1190     1.3020     0.9620 hc         1 LC4       0.032700
     30 H18         -0.7750    -0.8120     0.7760 hc         1 LC4       0.036700
     31 H18A        -0.7780    -0.6590    -0.9810 hc         1 LC4       0.036700
     32 H19          0.4540     1.5230    -0.7930 hc         1 LC4       0.035700
     33 H19A         0.4570     1.3700     0.9640 hc         1 LC4       0.035700
     34 H8           1.8000    -0.7450     0.7770 hc         1 LC4       0.039700
     35 H8A          1.7980    -0.5920    -0.9800 hc         1 LC4       0.039700
     36 H9           3.0290     1.5910    -0.7920 hc         1 LC4       0.037700
     37 H9A          3.0320     1.4370     0.9660 hc         1 LC4       0.037700
     38 H10          4.3780    -0.6780     0.7790 hc         1 LC4       0.054200
     39 H10A         4.3750    -0.5240    -0.9790 hc         1 LC4       0.054200
     40 H11          5.6100     1.6530    -0.7970 h1         1 LC4       0.058700
     41 H11A         5.6120     1.5010     0.9700 h1         1 LC4       0.058700
     42 H13          7.1640    -0.0170    -2.1860 h4         1 LC4       0.155000
     43 H14          9.3770    -1.4160    -1.3700 h4         1 LC4       0.034100
     44 H16          7.2960    -0.1440     2.0610 h5         1 LC4       0.051100
@<TRIPOS>BOND
     1     1     2 1   
     2     2     3 1   
     3     2     4 1   
     4     4     5 1   
     5     4    20 1   
     6     4    21 1   
     7     5     6 1   
     8     5    22 1   
     9     5    23 1   
    10     6     7 1   
    11     6    24 1   
    12     6    25 1   
    13     7     8 1   
    14     7    26 1   
    15     7    27 1   
    16     8     9 1   
    17     8    28 1   
    18     8    29 1   
    19     9    10 1   
    20     9    30 1   
    21     9    31 1   
    22    10    11 1   
    23    10    32 1   
    24    10    33 1   
    25    11    12 1   
    26    11    34 1   
    27    11    35 1   
    28    12    13 1   
    29    12    36 1   
    30    12    37 1   
    31    13    14 1   
    32    13    38 1   
    33    13    39 1   
    34    14    15 1   
    35    14    40 1   
    36    14    41 1   
    37    15    16 1   
    38    15    19 1   
    39    16    17 2   
    40    16    42 1   
    41    17    18 1   
    42    17    43 1   
    43    18    19 2   
    44    19    44 1   
@<TRIPOS>SUBSTRUCTURE
     1 LC4         1 TEMP              0 ****  ****    0 ROOT
