@<TRIPOS>MOLECULE
LC5
   47    48     1     0     0
SMALL
No Charge or Current Charge


@<TRIPOS>ATOM
      1 O12         -2.2830     2.4460    -0.9170 o          1 LC5      -0.625100
      2 C4          -3.1080     2.0310    -0.1090 c          1 LC5       0.626100
      3 N9          -4.1450     2.8870     0.3600 n          1 LC5      -0.314300
      4 O10         -5.1610     2.4150     1.2730 oh         1 LC5      -0.444100
      5 C11         -4.2530     4.3030    -0.0460 c3         1 LC5       0.098300
      6 C3          -3.0880     0.5760     0.4010 c3         1 LC5      -0.162400
      7 C2          -1.7730    -0.2250     0.1760 c3         1 LC5      -0.001700
      8 C1          -1.9880    -1.7530     0.3990 c3         1 LC5      -0.392400
      9 P5          -3.0670    -2.6490    -0.8110 p5         1 LC5       1.295500
     10 O6          -2.6810    -4.0890    -0.7970 o          1 LC5      -0.932833
     11 O7          -4.4900    -2.5020    -0.3920 o          1 LC5      -0.932833
     12 O8          -2.8600    -2.0760    -2.1710 o          1 LC5      -0.932833
     13 C13         -0.6340     0.3470     1.0770 c3         1 LC5      -0.068400
     14 C14          0.7910    -0.1680     0.7530 c3         1 LC5      -0.069400
     15 C15          1.8870     0.5280     1.5910 c3         1 LC5      -0.046100
     16 C16          3.2920     0.0290     1.2470 ca         1 LC5      -0.026300
     17 C17          4.0230     0.4980     0.1190 ca         1 LC5      -0.029000
     18 C23          3.4950     1.4650    -0.7700 ca         1 LC5      -0.070000
     19 C25          4.2440     1.9070    -1.8740 ca         1 LC5      -0.130000
     20 C24          5.5270     1.3940    -2.1090 ca         1 LC5      -0.113000
     21 C22          6.0650     0.4340    -1.2390 ca         1 LC5      -0.116000
     22 C19          5.3220    -0.0150    -0.1300 ca         1 LC5      -0.033000
     23 C21          5.8810    -0.9800     0.7260 ca         1 LC5      -0.129000
     24 C20          5.1570    -1.4430     1.8330 ca         1 LC5      -0.096000
     25 C18          3.8730    -0.9410     2.0890 ca         1 LC5      -0.123000
     26 H1          -5.9040     2.1030     0.7060 ho         1 LC5       0.445000
     27 H2          -5.0920     4.7850     0.4720 h1         1 LC5       0.026700
     28 H3          -3.3260     4.8310     0.2100 h1         1 LC5       0.026700
     29 H4          -4.4180     4.3650    -1.1290 h1         1 LC5       0.026700
     30 H5          -3.3900     0.5620     1.4530 hc         1 LC5       0.102200
     31 H6          -3.9440     0.0940    -0.0780 hc         1 LC5       0.102200
     32 H7          -1.4680    -0.0850    -0.8700 hc         1 LC5       0.082700
     33 H8          -1.0270    -2.2730     0.3440 hc         1 LC5       0.008700
     34 H9          -2.3830    -1.9300     1.4060 hc         1 LC5       0.008700
     35 H12         -0.6200     1.4390     0.9880 hc         1 LC5       0.004200
     36 H13         -0.8630     0.1300     2.1280 hc         1 LC5       0.004200
     37 H14          0.8520    -1.2460     0.9370 hc         1 LC5       0.057200
     38 H15          0.9940    -0.0150    -0.3140 hc         1 LC5       0.057200
     39 H16          1.8200     1.6150     1.4680 hc         1 LC5       0.035700
     40 H17          1.6760     0.3490     2.6530 hc         1 LC5       0.035700
     41 H18          2.5040     1.8850    -0.6250 ha         1 LC5       0.134000
     42 H19          3.8250     2.6500    -2.5500 ha         1 LC5       0.107000
     43 H20          6.1040     1.7380    -2.9650 ha         1 LC5       0.095000
     44 H21          7.0600     0.0390    -1.4280 ha         1 LC5       0.095000
     45 H22          6.8770    -1.3740     0.5340 ha         1 LC5       0.096000
     46 H23          5.5920    -2.1910     2.4930 ha         1 LC5       0.099000
     47 H24          3.3230    -1.3130     2.9510 ha         1 LC5       0.117000
@<TRIPOS>BOND
     1     1     2 2   
     2     2     3 1   
     3     2     6 1   
     4     3     4 1   
     5     3     5 1   
     6     4    26 1   
     7     5    27 1   
     8     5    28 1   
     9     5    29 1   
    10     6     7 1   
    11     6    30 1   
    12     6    31 1   
    13     7     8 1   
    14     7    13 1   
    15     7    32 1   
    16     8     9 1   
    17     8    33 1   
    18     8    34 1   
    19     9    10 1   
    20     9    11 1   
    21     9    12 1   
    22    13    14 1   
    23    13    35 1   
    24    13    36 1   
    25    14    15 1   
    26    14    37 1   
    27    14    38 1   
    28    15    16 1   
    29    15    39 1   
    30    15    40 1   
    31    16    17 ar  
    32    16    25 ar  
    33    17    18 ar  
    34    17    22 ar  
    35    18    19 ar  
    36    18    41 1   
    37    19    20 ar  
    38    19    42 1   
    39    20    21 ar  
    40    20    43 1   
    41    21    22 ar  
    42    21    44 1   
    43    22    23 ar  
    44    23    24 ar  
    45    23    45 1   
    46    24    25 ar  
    47    24    46 1   
    48    25    47 1   
@<TRIPOS>SUBSTRUCTURE
     1 LC5         1 TEMP              0 ****  ****    0 ROOT
