@<TRIPOS>MOLECULE
LC5
   47    48     1     0     0
SMALL
abcg2


@<TRIPOS>ATOM
      1 O12         -2.1450     2.2710    -1.0260 o          1 LC5      -0.625100
      2 C4          -2.9900     1.9560    -0.1970 c          1 LC5       0.626100
      3 N9          -4.0000     2.8120     0.1010 n          1 LC5      -0.314300
      4 O10         -4.8790     2.4910     1.1010 oh         1 LC5      -0.444100
      5 C11         -4.1390     4.1520    -0.4100 c3         1 LC5       0.098300
      6 C3          -3.0200     0.6160     0.4970 c3         1 LC5      -0.162400
      7 C2          -1.7660    -0.2280     0.2850 c3         1 LC5      -0.001700
      8 C1          -2.0500    -1.6860     0.6520 c3         1 LC5      -0.392400
      9 P5          -3.1790    -2.6300    -0.4930 p5         1 LC5       1.295500
     10 O6          -3.1500    -4.0670     0.0510 o          1 LC5      -0.932833
     11 O7          -4.5730    -1.9810    -0.3890 o          1 LC5      -0.932833
     12 O8          -2.5480    -2.4860    -1.8860 o          1 LC5      -0.932833
     13 C13         -0.5960     0.3480     1.0910 c3         1 LC5      -0.068400
     14 C14          0.7740    -0.1830     0.6900 c3         1 LC5      -0.069400
     15 C15          1.8820     0.3360     1.6100 c3         1 LC5      -0.046100
     16 C16          3.2520    -0.1250     1.1970 ca         1 LC5      -0.026300
     17 C17          3.9690     0.5240     0.1480 ca         1 LC5      -0.029000
     18 C23          3.4560     1.6530    -0.5390 ca         1 LC5      -0.070000
     19 C25          4.1700     2.2630    -1.5350 ca         1 LC5      -0.130000
     20 C24          5.4410     1.7760    -1.9030 ca         1 LC5      -0.113000
     21 C22          5.9650     0.6880    -1.2640 ca         1 LC5      -0.116000
     22 C19          5.2500     0.0350    -0.2310 ca         1 LC5      -0.033000
     23 C21          5.7910    -1.0920     0.4310 ca         1 LC5      -0.129000
     24 C20          5.0880    -1.7030     1.4310 ca         1 LC5      -0.096000
     25 C18          3.8220    -1.2140     1.8100 ca         1 LC5      -0.123000
     26 H1          -5.6460     2.0840     0.6740 ho         1 LC5       0.445000
     27 H2          -5.1270     4.2910    -0.8500 h1         1 LC5       0.026700
     28 H3          -3.9980     4.8890     0.3820 h1         1 LC5       0.026700
     29 H4          -3.3930     4.3210    -1.1800 h1         1 LC5       0.026700
     30 H5          -3.1940     0.7500     1.5690 hc         1 LC5       0.102200
     31 H6          -3.8860     0.0530     0.1270 hc         1 LC5       0.102200
     32 H7          -1.5030    -0.2000    -0.7770 hc         1 LC5       0.082700
     33 H8          -1.1050    -2.2380     0.6810 hc         1 LC5       0.008700
     34 H9          -2.4400    -1.7280     1.6780 hc         1 LC5       0.008700
     35 H12         -0.5750     1.4380     0.9910 hc         1 LC5       0.004200
     36 H13         -0.7660     0.1440     2.1560 hc         1 LC5       0.004200
     37 H14          0.7900    -1.2770     0.7130 hc         1 LC5       0.057200
     38 H15          0.9810     0.1030    -0.3460 hc         1 LC5       0.057200
     39 H16          1.8370     1.4270     1.6590 hc         1 LC5       0.035700
     40 H17          1.6840    -0.0140     2.6270 hc         1 LC5       0.035700
     41 H18          2.4840     2.0470    -0.2750 ha         1 LC5       0.134000
     42 H19          3.7580     3.1240    -2.0430 ha         1 LC5       0.107000
     43 H20          5.9980     2.2670    -2.6900 ha         1 LC5       0.095000
     44 H21          6.9420     0.3090    -1.5400 ha         1 LC5       0.095000
     45 H22          6.7660    -1.4590     0.1370 ha         1 LC5       0.096000
     46 H23          5.5000    -2.5650     1.9400 ha         1 LC5       0.099000
     47 H24          3.2850    -1.7130     2.6080 ha         1 LC5       0.117000
@<TRIPOS>BOND
     1     1     2 2   
     2     2     3 1   
     3     2     6 1   
     4     3     4 1   
     5     3     5 1   
     6     4    26 1   
     7     5    27 1   
     8     5    28 1   
     9     5    29 1   
    10     6     7 1   
    11     6    30 1   
    12     6    31 1   
    13     7     8 1   
    14     7    13 1   
    15     7    32 1   
    16     8     9 1   
    17     8    33 1   
    18     8    34 1   
    19     9    10 1   
    20     9    11 1   
    21     9    12 1   
    22    13    14 1   
    23    13    35 1   
    24    13    36 1   
    25    14    15 1   
    26    14    37 1   
    27    14    38 1   
    28    15    16 1   
    29    15    39 1   
    30    15    40 1   
    31    16    17 ar  
    32    16    25 ar  
    33    17    18 ar  
    34    17    22 ar  
    35    18    19 ar  
    36    18    41 1   
    37    19    20 ar  
    38    19    42 1   
    39    20    21 ar  
    40    20    43 1   
    41    21    22 ar  
    42    21    44 1   
    43    22    23 ar  
    44    23    24 ar  
    45    23    45 1   
    46    24    25 ar  
    47    24    46 1   
    48    25    47 1   
@<TRIPOS>SUBSTRUCTURE
     1 LC5         1 TEMP              0 ****  ****    0 ROOT
