@<TRIPOS>MOLECULE
LC6
  108   114     1     0     0
SMALL
No Charge or Current Charge


@<TRIPOS>ATOM
      1 C1          12.7060    -3.2270     0.9840 ca         1 LC6      -0.115000
      2 C2         -14.8280    -1.2120     3.7110 ca         1 LC6      -0.098000
      3 C3         -13.4260    -1.1640     3.6800 ca         1 LC6      -0.138000
      4 C4          13.0010    -2.0020     0.3610 ca         1 LC6      -0.097000
      5 C5          11.4840    -3.3930     1.6570 ca         1 LC6      -0.097000
      6 C6         -14.9850    -0.4620    -1.1020 ca         1 LC6      -0.059000
      7 C7         -15.5610    -1.0490     2.5250 ca         1 LC6      -0.122000
      8 C8         -12.7530    -0.9520     2.4630 ca         1 LC6      -0.057000
      9 C9         -15.6380    -0.6740     0.1210 ca         1 LC6      -0.160000
     10 C10         -1.7830     1.3650     0.8740 ca         1 LC6      -0.097000
     11 C11         -0.5240     0.9390     1.3220 ca         1 LC6      -0.095000
     12 C12          6.1160     2.0750     0.8900 ca         1 LC6      -0.249000
     13 C13        -13.5830    -0.4100    -1.1500 ca         1 LC6      -0.231000
     14 C14         12.0750    -0.9450     0.4070 ca         1 LC6      -0.108000
     15 C15         10.5580    -2.3360     1.7040 ca         1 LC6      -0.108000
     16 C16          5.1540     1.6240     1.8010 ca         1 LC6       0.073000
     17 C17         -0.3190    -0.4620    -0.6430 ca         1 LC6      -0.060000
     18 C18          5.3100    -0.6050     0.8280 ca         1 LC6       0.137000
     19 C19        -14.8950    -0.8360     1.3030 ca         1 LC6      -0.003000
     20 C20        -13.4810    -0.7860     1.2630 ca         1 LC6      -0.063000
     21 C21         -2.3510     0.8690    -0.3190 ca         1 LC6       0.010000
     22 C22          0.2260     0.0060     0.5720 ca         1 LC6      -0.155600
     23 C23         -1.5820    -0.0360    -1.1040 ca         1 LC6      -0.022300
     24 C24         -6.8070    -0.0730    -1.6630 cc         1 LC6      -0.247800
     25 C25          6.6780     1.2030    -0.0500 ca         1 LC6       0.469000
     26 C26          6.2720    -0.1410    -0.0930 ca         1 LC6      -0.315200
     27 C27        -12.8210    -0.5720     0.0300 ca         1 LC6       0.185100
     28 C28         10.8450    -1.1100     1.0770 ca         1 LC6      -0.093000
     29 C29          4.7550     0.2790     1.7710 ca         1 LC6      -0.385500
     30 C30         -6.0300     1.0020    -1.3530 cd         1 LC6      -0.144000
     31 C31         -5.9290    -1.2130    -1.4990 cc         1 LC6       0.337600
     32 C32         -6.4140     2.3660    -1.2290 cd         1 LC6      -0.076000
     33 C33         -5.4190     3.1920    -0.7650 cc         1 LC6      -0.131000
     34 C34         -4.1020     2.6750    -0.4780 cc         1 LC6      -0.174000
     35 C35         -3.7020     1.3520    -0.7060 cd         1 LC6      -0.011000
     36 C36          1.5900    -0.4870     1.0150 c          1 LC6       0.651700
     37 C38         -1.9990    -0.4910    -2.5020 c3         1 LC6      -0.059800
     38 C39          7.5150     6.5360    -2.9520 c3         1 LC6       0.148100
     39 C40          9.9130     6.3000    -2.4930 c3         1 LC6       0.148100
     40 C42         -9.1950    -0.3180    -0.8250 c3         1 LC6      -0.079400
     41 C43          9.2980     3.4180    -1.5420 c3         1 LC6      -0.095400
     42 C44          8.2980     4.5930    -1.6640 c3         1 LC6       0.165800
     43 C45        -10.6890    -0.3090    -1.1970 c3         1 LC6       0.163600
     44 C46         10.0000     1.3150    -0.2610 c3         1 LC6       0.016600
     45 C47          8.8860     2.3680    -0.4860 c3         1 LC6       0.248500
     46 N48         -4.6870    -0.8630    -1.1240 nd         1 LC6      -0.548100
     47 N49         -4.7700     0.5090    -1.0980 na         1 LC6       0.307400
     48 N50          7.6390     1.7110    -0.9120 nu         1 LC6      -0.939200
     49 N51          2.0580     0.0120     2.1880 ns         1 LC6      -0.582300
     50 N52          8.6290     5.5900    -2.7160 n3         1 LC6      -0.711600
     51 N53          6.8510    -1.1070    -1.0560 no         1 LC6       0.710200
     52 O54          7.1780    -0.7010    -2.1780 o          1 LC6      -0.418000
     53 O55          2.2320    -1.2850     0.3500 o          1 LC6      -0.570100
     54 O56         -5.5170    -3.5640    -1.5310 o          1 LC6      -0.700000
     55 O57          6.8810    -2.2980    -0.7270 o          1 LC6      -0.418000
     56 O58          3.6260    -1.7720     3.0210 o          1 LC6      -0.531500
     57 O59          3.5410     0.5390     4.1190 o          1 LC6      -0.531500
     58 O60         -7.4940    -2.9640    -2.0380 o          1 LC6      -0.700000
     59 O61        -11.4380    -0.5250     0.0100 os         1 LC6      -0.342100
     60 S62          9.6240     0.2010     1.1710 ss         1 LC6      -0.146000
     61 S63          3.5190    -0.3120     2.9260 sy         1 LC6       1.202300
     62 H1          13.4230    -4.0440     0.9480 ha         1 LC6       0.114000
     63 H4          13.9490    -1.8720    -0.1560 ha         1 LC6       0.113000
     64 H5          11.2540    -4.3400     2.1420 ha         1 LC6       0.113000
     65 H6         -15.5660    -0.3370    -2.0130 ha         1 LC6       0.102000
     66 H7         -16.6480    -1.0880     2.5560 ha         1 LC6       0.104000
     67 H8         -11.6660    -0.9180     2.4620 ha         1 LC6       0.135000
     68 H9         -16.7250    -0.7120     0.1480 ha         1 LC6       0.106000
     69 H10         -2.3410     2.0650     1.4910 ha         1 LC6       0.120000
     70 H11         -0.1520     1.3420     2.2600 ha         1 LC6       0.100000
     71 H12          6.4210     3.1160     0.9110 ha         1 LC6       0.122000
     72 H13        -13.1070    -0.2440    -2.1120 ha         1 LC6       0.120000
     73 H14         12.3310    -0.0050    -0.0730 ha         1 LC6       0.117500
     74 H15          9.6130    -2.4710     2.2260 ha         1 LC6       0.117500
     75 H16          4.7260     2.3220     2.5210 ha         1 LC6       0.133000
     76 H17          0.2550    -1.1530    -1.2560 ha         1 LC6       0.136000
     77 H18          4.9850    -1.6480     0.8050 ha         1 LC6       0.183000
     78 H19         -7.4200     2.7230    -1.4280 ha         1 LC6       0.118000
     79 H20         -5.6170     4.2460    -0.5930 ha         1 LC6       0.104000
     80 H21         -3.3760     3.3920    -0.1080 ha         1 LC6       0.112000
     81 H22         -2.4250    -1.5010    -2.4810 hc         1 LC6       0.058033
     82 H23         -2.7290     0.1840    -2.9620 hc         1 LC6       0.058033
     83 H24         -1.1350    -0.5200    -3.1770 hc         1 LC6       0.058033
     84 H25          7.7460     7.2090    -3.7880 h1         1 LC6       0.032533
     85 H26          6.5920     5.9950    -3.2020 h1         1 LC6       0.032533
     86 H27          7.3240     7.1480    -2.0600 h1         1 LC6       0.032533
     87 H28          9.9040     6.8350    -1.5340 h1         1 LC6       0.032533
     88 H29         10.7600     5.6020    -2.4940 h1         1 LC6       0.032533
     89 H30         10.0940     7.0320    -3.2920 h1         1 LC6       0.032533
     90 H33         -8.9460    -1.2820    -0.3650 hc         1 LC6       0.066700
     91 H34         -9.0080     0.4560    -0.0710 hc         1 LC6       0.066700
     92 H35          9.4120     2.9340    -2.5200 hc         1 LC6       0.059700
     93 H36         10.2810     3.8120    -1.2630 hc         1 LC6       0.059700
     94 H37          7.3070     4.1690    -1.8790 h1         1 LC6       0.035700
     95 H38          8.2230     5.0920    -0.6880 h1         1 LC6       0.035700
     96 H39        -10.9490     0.6580    -1.6460 h1         1 LC6       0.032200
     97 H40        -10.8900    -1.1050    -1.9260 h1         1 LC6       0.032200
     98 H41         10.1220     0.7080    -1.1670 h1         1 LC6       0.076200
     99 H42         10.9470     1.8290    -0.0580 h1         1 LC6       0.076200
    100 H43          8.7300     2.9030     0.4630 h1         1 LC6       0.075700
    101 H44          7.7270     1.1350    -1.7530 hn         1 LC6       0.538000
    102 H45          1.5200     0.6830     2.7050 hn         1 LC6       0.350500
    103 C37         -6.3490    -2.6760    -1.7050 c          1 LC6       0.642700
    104 H2         -15.3470    -1.3760     4.6530 ha         1 LC6       0.103000
    105 C41         -8.2730    -0.0720    -2.0370 c3         1 LC6       0.027800
    106 H3         -12.8570    -1.2900     4.5980 ha         1 LC6       0.109000
    107 H31         -8.5340     0.8960    -2.4810 hc         1 LC6       0.041700
    108 H32         -8.4780    -0.8060    -2.8240 hc         1 LC6       0.041700
@<TRIPOS>BOND
     1     1     4 ar  
     2     1     5 ar  
     3     1    62 1   
     4     2     3 ar  
     5     2     7 ar  
     6     2   104 1   
     7     3     8 ar  
     8     3   106 1   
     9     4    14 ar  
    10     4    63 1   
    11     5    15 ar  
    12     5    64 1   
    13     6     9 ar  
    14     6    13 ar  
    15     6    65 1   
    16     7    19 ar  
    17     7    66 1   
    18     8    20 ar  
    19     8    67 1   
    20     9    19 ar  
    21     9    68 1   
    22    10    11 ar  
    23    10    21 ar  
    24    10    69 1   
    25    11    22 ar  
    26    11    70 1   
    27    12    16 ar  
    28    12    25 ar  
    29    12    71 1   
    30    13    27 ar  
    31    13    72 1   
    32    14    28 ar  
    33    14    73 1   
    34    15    28 ar  
    35    15    74 1   
    36    16    29 ar  
    37    16    75 1   
    38    17    22 ar  
    39    17    23 ar  
    40    17    76 1   
    41    18    26 ar  
    42    18    29 ar  
    43    18    77 1   
    44    19    20 ar  
    45    20    27 ar  
    46    21    23 ar  
    47    21    35 1   
    48    22    36 1   
    49    23    37 1   
    50    24    30 2   
    51    24    31 1   
    52    24   105 1   
    53    25    26 ar  
    54    25    48 1   
    55    26    51 1   
    56    27    59 1   
    57    28    60 1   
    58    29    61 1   
    59    30    32 1   
    60    30    47 1   
    61    31    46 2   
    62    31   103 1   
    63    32    33 2   
    64    32    78 1   
    65    33    34 1   
    66    33    79 1   
    67    34    35 2   
    68    34    80 1   
    69    35    47 1   
    70    36    49 1   
    71    36    53 2   
    72    37    81 1   
    73    37    82 1   
    74    37    83 1   
    75    38    50 1   
    76    38    84 1   
    77    38    85 1   
    78    38    86 1   
    79    39    50 1   
    80    39    87 1   
    81    39    88 1   
    82    39    89 1   
    83    40    43 1   
    84    40    90 1   
    85    40    91 1   
    86    40   105 1   
    87    41    42 1   
    88    41    45 1   
    89    41    92 1   
    90    41    93 1   
    91    42    50 1   
    92    42    94 1   
    93    42    95 1   
    94    43    59 1   
    95    43    96 1   
    96    43    97 1   
    97    44    45 1   
    98    44    60 1   
    99    44    98 1   
   100    44    99 1   
   101    45    48 1   
   102    45   100 1   
   103    46    47 1   
   104    48   101 1   
   105    49    61 1   
   106    49   102 1   
   107    51    52 1   
   108    51    55 1   
   109    54   103 1   
   110    56    61 2   
   111    57    61 2   
   112    58   103 1   
   113   105   107 1   
   114   105   108 1   
@<TRIPOS>SUBSTRUCTURE
     1 LC6         1 TEMP              0 ****  ****    0 ROOT
