@<TRIPOS>MOLECULE
LC6
  108   114     1     0     0
SMALL
abcg2


@<TRIPOS>ATOM
      1 C1          14.9330     0.7930     1.1640 ca         1 LC6      -0.115000
      2 C2         -14.3590     0.9020     3.7420 ca         1 LC6      -0.098000
      3 C3         -12.9530     0.8230     3.7140 ca         1 LC6      -0.138000
      4 C4          14.2410     1.4670     0.1700 ca         1 LC6      -0.097000
      5 C5          14.2280     0.0110     2.0720 ca         1 LC6      -0.097000
      6 C6         -14.4740     0.6840    -1.0810 ca         1 LC6      -0.059000
      7 C7         -15.0690     0.8900     2.5720 ca         1 LC6      -0.122000
      8 C8         -12.2870     0.7340     2.5210 ca         1 LC6      -0.057000
      9 C9         -15.1390     0.7800     0.1060 ca         1 LC6      -0.160000
     10 C10         -1.3950     0.7700     0.3740 ca         1 LC6      -0.097000
     11 C11         -0.2470     0.1700     0.8620 ca         1 LC6      -0.095000
     12 C12          6.0700     0.4780     1.3060 ca         1 LC6      -0.249000
     13 C13        -13.0660     0.6010    -1.1280 ca         1 LC6      -0.231000
     14 C14         12.8580     1.3660     0.0720 ca         1 LC6      -0.108000
     15 C15         12.8490    -0.0900     1.9900 ca         1 LC6      -0.108000
     16 C16          5.0440    -0.0960     1.9980 ca         1 LC6       0.073000
     17 C17         -0.2220    -1.2660    -1.0640 ca         1 LC6      -0.060000
     18 C18          5.2600    -2.1040     0.6960 ca         1 LC6       0.137000
     19 C19        -14.4130     0.7980     1.3220 ca         1 LC6      -0.003000
     20 C20        -12.9970     0.7190     1.2980 ca         1 LC6      -0.063000
     21 C21         -1.9730     0.3460    -0.8180 ca         1 LC6       0.010000
     22 C22          0.3440    -0.8660     0.1450 ca         1 LC6      -0.155600
     23 C23         -1.3790    -0.6830    -1.5610 ca         1 LC6      -0.022300
     24 C24         -6.4950    -0.1360    -1.6780 cc         1 LC6      -0.247800
     25 C25          6.7560    -0.1980     0.2610 ca         1 LC6       0.469000
     26 C26          6.3080    -1.5270    -0.0140 ca         1 LC6      -0.315200
     27 C27        -12.3360     0.6190     0.0360 ca         1 LC6       0.185100
     28 C28         12.1520     0.5880     0.9870 ca         1 LC6      -0.093000
     29 C29          4.6310    -1.3990     1.6900 ca         1 LC6      -0.385500
     30 C30         -5.5500     0.8780    -1.7820 cd         1 LC6      -0.144000
     31 C31         -5.7740    -1.2280    -1.1660 cc         1 LC6       0.337600
     32 C32         -5.5630     2.2310    -2.1840 cd         1 LC6      -0.076000
     33 C33         -4.4100     2.9530    -2.1240 cc         1 LC6      -0.131000
     34 C34         -3.2100     2.3450    -1.6710 cc         1 LC6      -0.174000
     35 C35         -3.1870     1.0380    -1.2920 cd         1 LC6      -0.011000
     36 C36          1.5780    -1.5690     0.5860 c          1 LC6       0.651700
     37 C38         -1.9500    -1.1510    -2.8640 c3         1 LC6      -0.059800
     38 C39          4.4030     3.8860    -2.1860 c3         1 LC6       0.148100
     39 C40          6.3010     5.2770    -1.8360 c3         1 LC6       0.148100
     40 C42         -8.7950     0.2420    -0.7500 c3         1 LC6      -0.079400
     41 C43          7.8270     2.7400    -1.1860 c3         1 LC6      -0.095400
     42 C44          6.3250     2.9780    -1.1070 c3         1 LC6       0.165800
     43 C45        -10.2630     0.3470    -1.1030 c3         1 LC6       0.163600
     44 C46          9.8430     1.6030    -0.2410 c3         1 LC6       0.016600
     45 C47          8.3220     1.7080    -0.1710 c3         1 LC6       0.248500
     46 N48         -4.4890    -0.9300    -0.9690 nd         1 LC6      -0.548100
     47 N49         -4.3590     0.3330    -1.3450 na         1 LC6       0.307400
     48 N50          7.7530     0.3930    -0.4020 nu         1 LC6      -0.939200
     49 N51          1.9350    -1.4030     1.9000 ns         1 LC6      -0.582300
     50 N52          5.8470     3.9270    -2.0940 n3         1 LC6      -0.711600
     51 N53          6.9060    -2.3460    -1.0330 no         1 LC6       0.710200
     52 O54          7.7980    -1.8770    -1.7190 o          1 LC6      -0.418000
     53 O55          2.2420    -2.2580    -0.1590 o          1 LC6      -0.570100
     54 O56         -5.4380    -3.4290    -0.4180 o          1 LC6      -0.700000
     55 O57          6.5070    -3.4780    -1.1800 o          1 LC6      -0.418000
     56 O58          3.2720    -3.5390     2.3330 o          1 LC6      -0.531500
     57 O59          3.3050    -1.6050     3.9340 o          1 LC6      -0.531500
     58 O60         -7.4940    -2.8150    -1.0310 o          1 LC6      -0.700000
     59 O61        -10.9970     0.5460     0.0950 os         1 LC6      -0.342100
     60 S62         10.4050     0.3630     0.9550 ss         1 LC6      -0.146000
     61 S63          3.3020    -2.1130     2.5750 sy         1 LC6       1.202300
     62 H1          16.0100     0.8750     1.2340 ha         1 LC6       0.114000
     63 H4          14.7760     2.0770    -0.5470 ha         1 LC6       0.113000
     64 H5          14.7530    -0.5190     2.8570 ha         1 LC6       0.113000
     65 H6         -15.0250     0.6690    -2.0130 ha         1 LC6       0.102000
     66 H7         -16.1510     0.9470     2.5890 ha         1 LC6       0.104000
     67 H8         -11.2070     0.6740     2.5190 ha         1 LC6       0.135000
     68 H9         -16.2200     0.8400     0.1340 ha         1 LC6       0.106000
     69 H10         -1.8540     1.5740     0.9350 ha         1 LC6       0.120000
     70 H11          0.1700     0.5410     1.7890 ha         1 LC6       0.100000
     71 H12          6.3490     1.4880     1.5630 ha         1 LC6       0.122000
     72 H13        -12.5830     0.5240    -2.0920 ha         1 LC6       0.120000
     73 H14         12.3490     1.8940    -0.7210 ha         1 LC6       0.117500
     74 H15         12.3120    -0.6940     2.7120 ha         1 LC6       0.117500
     75 H16          4.5590     0.4740     2.7780 ha         1 LC6       0.133000
     76 H17          0.2510    -2.0540    -1.6370 ha         1 LC6       0.136000
     77 H18          4.9500    -3.1110     0.4600 ha         1 LC6       0.183000
     78 H19         -6.4910     2.6710    -2.5270 ha         1 LC6       0.118000
     79 H20         -4.3950     3.9910    -2.4240 ha         1 LC6       0.104000
     80 H21         -2.2910     2.9130    -1.6410 ha         1 LC6       0.112000
     81 H22         -2.7720    -1.8480    -2.6950 hc         1 LC6       0.058033
     82 H23         -2.3400    -0.3230    -3.4570 hc         1 LC6       0.058033
     83 H24         -1.1930    -1.6610    -3.4590 hc         1 LC6       0.058033
     84 H25          4.0600     4.5590    -2.9740 h1         1 LC6       0.032533
     85 H26          4.0700     2.8790    -2.4390 h1         1 LC6       0.032533
     86 H27          3.8970     4.1810    -1.2520 h1         1 LC6       0.032533
     87 H28          5.9860     5.6570    -0.8510 h1         1 LC6       0.032533
     88 H29          7.3870     5.3490    -1.8890 h1         1 LC6       0.032533
     89 H30          5.8970     5.9500    -2.5940 h1         1 LC6       0.032533
     90 H33         -8.6420    -0.5850    -0.0550 hc         1 LC6       0.066700
     91 H34         -8.4670     1.1590    -0.2540 hc         1 LC6       0.066700
     92 H35          8.0920     2.4160    -2.1960 hc         1 LC6       0.059700
     93 H36          8.3720     3.6660    -0.9930 hc         1 LC6       0.059700
     94 H37          5.8090     2.0310    -1.2890 h1         1 LC6       0.035700
     95 H38          6.0530     3.2920    -0.0820 h1         1 LC6       0.035700
     96 H39        -10.4330     1.1790    -1.7970 h1         1 LC6       0.032200
     97 H40        -10.6000    -0.5700    -1.6000 h1         1 LC6       0.032200
     98 H41         10.1610     1.3300    -1.2500 h1         1 LC6       0.076200
     99 H42         10.2750     2.5730     0.0040 h1         1 LC6       0.076200
    100 H43          8.0650     2.0420     0.8350 h1         1 LC6       0.075700
    101 H44          8.1440    -0.1360    -1.1690 hn         1 LC6       0.538000
    102 H45          1.3780    -0.8580     2.5440 hn         1 LC6       0.350500
    103 C37         -6.2770    -2.6160    -0.8420 c          1 LC6       0.642700
    104 H2         -14.8760     0.9710     4.6900 ha         1 LC6       0.103000
    105 C41         -7.9460     0.0030    -1.9980 c3         1 LC6       0.027800
    106 H3         -12.3960     0.8310     4.6420 ha         1 LC6       0.109000
    107 H31         -8.0850     0.8350    -2.6960 hc         1 LC6       0.041700
    108 H32         -8.2980    -0.8950    -2.5050 hc         1 LC6       0.041700
@<TRIPOS>BOND
     1     1     4 ar  
     2     1     5 ar  
     3     1    62 1   
     4     2     3 ar  
     5     2     7 ar  
     6     2   104 1   
     7     3     8 ar  
     8     3   106 1   
     9     4    14 ar  
    10     4    63 1   
    11     5    15 ar  
    12     5    64 1   
    13     6     9 ar  
    14     6    13 ar  
    15     6    65 1   
    16     7    19 ar  
    17     7    66 1   
    18     8    20 ar  
    19     8    67 1   
    20     9    19 ar  
    21     9    68 1   
    22    10    11 ar  
    23    10    21 ar  
    24    10    69 1   
    25    11    22 ar  
    26    11    70 1   
    27    12    16 ar  
    28    12    25 ar  
    29    12    71 1   
    30    13    27 ar  
    31    13    72 1   
    32    14    28 ar  
    33    14    73 1   
    34    15    28 ar  
    35    15    74 1   
    36    16    29 ar  
    37    16    75 1   
    38    17    22 ar  
    39    17    23 ar  
    40    17    76 1   
    41    18    26 ar  
    42    18    29 ar  
    43    18    77 1   
    44    19    20 ar  
    45    20    27 ar  
    46    21    23 ar  
    47    21    35 1   
    48    22    36 1   
    49    23    37 1   
    50    24    30 2   
    51    24    31 1   
    52    24   105 1   
    53    25    26 ar  
    54    25    48 1   
    55    26    51 1   
    56    27    59 1   
    57    28    60 1   
    58    29    61 1   
    59    30    32 1   
    60    30    47 1   
    61    31    46 2   
    62    31   103 1   
    63    32    33 2   
    64    32    78 1   
    65    33    34 1   
    66    33    79 1   
    67    34    35 2   
    68    34    80 1   
    69    35    47 1   
    70    36    49 1   
    71    36    53 2   
    72    37    81 1   
    73    37    82 1   
    74    37    83 1   
    75    38    50 1   
    76    38    84 1   
    77    38    85 1   
    78    38    86 1   
    79    39    50 1   
    80    39    87 1   
    81    39    88 1   
    82    39    89 1   
    83    40    43 1   
    84    40    90 1   
    85    40    91 1   
    86    40   105 1   
    87    41    42 1   
    88    41    45 1   
    89    41    92 1   
    90    41    93 1   
    91    42    50 1   
    92    42    94 1   
    93    42    95 1   
    94    43    59 1   
    95    43    96 1   
    96    43    97 1   
    97    44    45 1   
    98    44    60 1   
    99    44    98 1   
   100    44    99 1   
   101    45    48 1   
   102    45   100 1   
   103    46    47 1   
   104    48   101 1   
   105    49    61 1   
   106    49   102 1   
   107    51    52 1   
   108    51    55 1   
   109    54   103 1   
   110    56    61 2   
   111    57    61 2   
   112    58   103 1   
   113   105   107 1   
   114   105   108 1   
@<TRIPOS>SUBSTRUCTURE
     1 LC6         1 TEMP              0 ****  ****    0 ROOT
