@<TRIPOS>MOLECULE
LC7
   41    41     1     0     0
SMALL
abcg2


@<TRIPOS>ATOM
      1 O12         -2.0760     2.1890    -1.3030 o          1 LC7      -0.615100
      2 C4          -2.8370     1.8630    -0.4030 c          1 LC7       0.619100
      3 N9          -3.8700     2.6790    -0.0610 n          1 LC7      -0.307300
      4 O10         -4.8690     2.1610     0.7270 oh         1 LC7      -0.423100
      5 C11         -4.2680     3.8320    -0.8320 c3         1 LC7       0.090300
      6 C3          -2.6990     0.5850     0.3860 c3         1 LC7      -0.157400
      7 C2          -1.3570    -0.1220     0.2080 c3         1 LC7      -0.004700
      8 C1          -1.4600    -1.5570     0.7320 c3         1 LC7      -0.389400
      9 P5          -2.4500    -2.7480    -0.3050 p5         1 LC7       1.294500
     10 O7          -1.8130    -2.6910    -1.7010 o          1 LC7      -0.931833
     11 O6          -2.2690    -4.1000     0.4020 o          1 LC7      -0.931833
     12 O8          -3.9090    -2.2530    -0.2850 o          1 LC7      -0.931833
     13 C13         -0.2370     0.6650     0.9000 c3         1 LC7      -0.068400
     14 C14          1.1680     0.2370     0.4940 c3         1 LC7      -0.068400
     15 C15          2.2520     1.0130     1.2440 c3         1 LC7      -0.045100
     16 C16          3.6350     0.5950     0.8310 ca         1 LC7      -0.020300
     17 C17          4.2730     1.2310    -0.2320 ca         1 LC7      -0.150000
     18 C18          4.2820    -0.4640     1.4650 ca         1 LC7      -0.120000
     19 C20          5.5410    -0.8760     1.0510 ca         1 LC7      -0.090000
     20 C21          6.1820    -0.2430    -0.0060 ca         1 LC7      -0.175000
     21 C19          5.5250     0.8020    -0.6250 ca         1 LC7       0.159000
     22 F22          6.1280     1.4300    -1.6510 f          1 LC7      -0.199000
     23 H1          -4.7510     2.5530     1.6020 ho         1 LC7       0.420000
     24 H2          -4.9900     3.5770    -1.6110 h1         1 LC7       0.027367
     25 H3          -4.7130     4.5720    -0.1690 h1         1 LC7       0.027367
     26 H4          -3.3940     4.2770    -1.2980 h1         1 LC7       0.027367
     27 H5          -2.8720     0.7760     1.4490 hc         1 LC7       0.101700
     28 H6          -3.4910    -0.1060     0.0770 hc         1 LC7       0.101700
     29 H7          -1.1280    -0.1750    -0.8610 hc         1 LC7       0.084700
     30 H8          -0.4530    -1.9790     0.8230 hc         1 LC7       0.007200
     31 H9          -1.8560    -1.5350     1.7560 hc         1 LC7       0.007200
     32 H12         -0.3400     1.7330     0.6840 hc         1 LC7       0.002700
     33 H13         -0.3490     0.5630     1.9860 hc         1 LC7       0.002700
     34 H14          1.3090    -0.8320     0.6750 hc         1 LC7       0.058700
     35 H15          1.2940     0.3870    -0.5830 hc         1 LC7       0.058700
     36 H16          2.1210     2.0830     1.0670 hc         1 LC7       0.035700
     37 H17          2.1280     0.8550     2.3190 hc         1 LC7       0.035700
     38 H18          3.7970     2.0570    -0.7470 ha         1 LC7       0.131000
     39 H19          3.7980    -0.9680     2.2930 ha         1 LC7       0.123000
     40 H20          6.0350    -1.6960     1.5560 ha         1 LC7       0.103000
     41 H21          7.1660    -0.5510    -0.3350 ha         1 LC7       0.112000
@<TRIPOS>BOND
     1     1     2 2   
     2     2     3 1   
     3     2     6 1   
     4     3     4 1   
     5     3     5 1   
     6     4    23 1   
     7     5    24 1   
     8     5    25 1   
     9     5    26 1   
    10     6     7 1   
    11     6    27 1   
    12     6    28 1   
    13     7     8 1   
    14     7    13 1   
    15     7    29 1   
    16     8     9 1   
    17     8    30 1   
    18     8    31 1   
    19     9    10 1   
    20     9    11 1   
    21     9    12 1   
    22    13    14 1   
    23    13    32 1   
    24    13    33 1   
    25    14    15 1   
    26    14    34 1   
    27    14    35 1   
    28    15    16 1   
    29    15    36 1   
    30    15    37 1   
    31    16    17 ar  
    32    16    18 ar  
    33    17    21 ar  
    34    17    38 1   
    35    18    19 ar  
    36    18    39 1   
    37    19    20 ar  
    38    19    40 1   
    39    20    21 ar  
    40    20    41 1   
    41    21    22 1   
@<TRIPOS>SUBSTRUCTURE
     1 LC7         1 TEMP              0 ****  ****    0 ROOT
