@<TRIPOS>MOLECULE
LC7
   41    41     1     0     0
SMALL
No Charge or Current Charge


@<TRIPOS>ATOM
      1 O12         -2.1960     2.2020    -1.3610 o          1 LC7      -0.615100
      2 C4          -2.9340     1.8730    -0.4380 c          1 LC7       0.619100
      3 N9          -4.0150     2.7130    -0.0500 n          1 LC7      -0.307300
      4 O10         -4.9420     2.3210     0.9840 oh         1 LC7      -0.423100
      5 C11         -4.3080     3.9960    -0.7210 c3         1 LC7       0.090300
      6 C3          -2.7520     0.5370     0.3110 c3         1 LC7      -0.157400
      7 C2          -1.3850    -0.1860     0.1300 c3         1 LC7      -0.004700
      8 C1          -1.4490    -1.6630     0.6250 c3         1 LC7      -0.389400
      9 P5          -2.5110    -2.8400    -0.3340 p5         1 LC7       1.294500
     10 O7          -2.4430    -2.4940    -1.7820 o          1 LC7      -0.931833
     11 O6          -1.9910    -4.2190    -0.1120 o          1 LC7      -0.931833
     12 O8          -3.9130    -2.7410     0.1620 o          1 LC7      -0.931833
     13 C13         -0.2510     0.6230     0.8330 c3         1 LC7      -0.068400
     14 C14          1.1930     0.1700     0.4990 c3         1 LC7      -0.068400
     15 C15          2.2700     1.0870     1.1170 c3         1 LC7      -0.045100
     16 C16          3.6800     0.6240     0.7800 ca         1 LC7      -0.020300
     17 C17          4.3240     1.0940    -0.3810 ca         1 LC7      -0.150000
     18 C18          4.3510    -0.2860     1.6210 ca         1 LC7      -0.120000
     19 C20          5.6520    -0.7190     1.3090 ca         1 LC7      -0.090000
     20 C21          6.2890    -0.2440     0.1510 ca         1 LC7      -0.175000
     21 C19          5.6230     0.6610    -0.6900 ca         1 LC7       0.159000
     22 F22          6.2350     1.1160    -1.8050 f          1 LC7      -0.199000
     23 H1          -4.5930     2.7190     1.8130 ho         1 LC7       0.420000
     24 H2          -4.5260     3.8160    -1.7810 h1         1 LC7       0.027367
     25 H3          -5.1750     4.4810    -0.2540 h1         1 LC7       0.027367
     26 H4          -3.4390     4.6620    -0.6390 h1         1 LC7       0.027367
     27 H5          -2.9890     0.6820     1.3700 hc         1 LC7       0.101700
     28 H6          -3.5880    -0.0860    -0.0140 hc         1 LC7       0.101700
     29 H7          -1.1570    -0.2090    -0.9450 hc         1 LC7       0.084700
     30 H8          -0.4500    -2.1080     0.5890 hc         1 LC7       0.007200
     31 H9          -1.7670    -1.6900     1.6740 hc         1 LC7       0.007200
     32 H12         -0.3390     1.6800     0.5570 hc         1 LC7       0.002700
     33 H13         -0.3970     0.5790     1.9200 hc         1 LC7       0.002700
     34 H14          1.3600    -0.8500     0.8620 hc         1 LC7       0.058700
     35 H15          1.3230     0.1500    -0.5900 hc         1 LC7       0.058700
     36 H16          2.1170     2.1140     0.7610 hc         1 LC7       0.035700
     37 H17          2.1350     1.1180     2.2050 hc         1 LC7       0.035700
     38 H18          3.8200     1.7930    -1.0430 ha         1 LC7       0.131000
     39 H19          3.8620    -0.6590     2.5180 ha         1 LC7       0.123000
     40 H20          6.1630    -1.4210     1.9640 ha         1 LC7       0.103000
     41 H21          7.2950    -0.5750    -0.0960 ha         1 LC7       0.112000
@<TRIPOS>BOND
     1     1     2 2   
     2     2     3 1   
     3     2     6 1   
     4     3     4 1   
     5     3     5 1   
     6     4    23 1   
     7     5    24 1   
     8     5    25 1   
     9     5    26 1   
    10     6     7 1   
    11     6    27 1   
    12     6    28 1   
    13     7     8 1   
    14     7    13 1   
    15     7    29 1   
    16     8     9 1   
    17     8    30 1   
    18     8    31 1   
    19     9    10 1   
    20     9    11 1   
    21     9    12 1   
    22    13    14 1   
    23    13    32 1   
    24    13    33 1   
    25    14    15 1   
    26    14    34 1   
    27    14    35 1   
    28    15    16 1   
    29    15    36 1   
    30    15    37 1   
    31    16    17 ar  
    32    16    18 ar  
    33    17    21 ar  
    34    17    38 1   
    35    18    19 ar  
    36    18    39 1   
    37    19    20 ar  
    38    19    40 1   
    39    20    21 ar  
    40    20    41 1   
    41    21    22 1   
@<TRIPOS>SUBSTRUCTURE
     1 LC7         1 TEMP              0 ****  ****    0 ROOT
