@<TRIPOS>MOLECULE
LC8
   31    32     1     0     0
SMALL
bcc


@<TRIPOS>ATOM
      1 O3          -5.6260     6.4020    13.6910 o          1 LC8      -0.228500
      2 C4          -1.7490     5.7200    14.3530 c3         1 LC8       0.203500
      3 C5          -1.3260     7.0470    13.8480 cc         1 LC8       0.183000
      4 O4          -7.3330     5.2380    14.1960 o          1 LC8      -0.228500
      5 C6          -0.6630     7.4270    12.7290 cd         1 LC8      -0.224300
      6 N1          -3.1940     5.5860    14.3000 nu         1 LC8      -0.735600
      7 C7          -0.5400     8.8480    12.7990 cd         1 LC8      -0.275300
      8 C8          -1.1420     9.2160    13.9540 cc         1 LC8       0.257600
      9 N2          -6.1340     5.4030    14.1690 no         1 LC8       0.330200
     10 C9          -5.2820     4.3890    14.7190 ca         1 LC8      -0.316200
     11 C10         -5.9150     3.2530    15.2210 ca         1 LC8       0.092000
     12 N           -5.4380    -0.3620    15.4180 n8         1 LC8      -0.899700
     13 C           -5.1770     2.2360    15.7670 ca         1 LC8      -0.365500
     14 O           -5.3930     0.5080    17.7370 o          1 LC8      -0.613300
     15 C1          -3.7800     2.3360    15.8250 ca         1 LC8       0.067000
     16 C2          -3.1490     3.4420    15.3340 ca         1 LC8      -0.265000
     17 C3          -3.8640     4.5270    14.7580 ca         1 LC8       0.322600
     18 O1          -7.4120     1.0360    16.3580 o          1 LC8      -0.613300
     19 O2          -1.6210     8.1330    14.5990 os         1 LC8      -0.319800
     20 S           -5.9730     0.8200    16.4390 sy         1 LC8       1.286200
     21 H1          -1.2640     4.9540    13.7420 h1         1 LC8       0.068200
     22 H2          -1.4010     5.5810    15.3810 h1         1 LC8       0.068200
     23 H3          -0.3060     6.7750    11.9490 ha         1 LC8       0.163000
     24 H4          -3.7260     6.3130    13.8490 hn         1 LC8       0.489800
     25 H5          -0.0680     9.5020    12.0850 ha         1 LC8       0.167000
     26 H6          -1.3000    10.1700    14.4290 h4         1 LC8       0.059100
     27 H7          -6.9920     3.1830    15.1750 ha         1 LC8       0.190000
     28 H8          -5.5340    -1.2850    15.8310 hn         1 LC8       0.419800
     29 H9          -5.8910    -0.3330    14.5090 hn         1 LC8       0.419800
     30 H10         -3.1860     1.5370    16.2500 ha         1 LC8       0.156000
     31 H11         -2.0710     3.4820    15.3850 ha         1 LC8       0.144000
@<TRIPOS>BOND
     1     1     9 1   
     2     2     3 1   
     3     2     6 1   
     4     2    21 1   
     5     2    22 1   
     6     3     5 2   
     7     3    19 1   
     8     4     9 1   
     9     5     7 1   
    10     5    23 1   
    11     6    17 1   
    12     6    24 1   
    13     7     8 2   
    14     7    25 1   
    15     8    19 1   
    16     8    26 1   
    17     9    10 1   
    18    10    11 ar  
    19    10    17 ar  
    20    11    13 ar  
    21    11    27 1   
    22    12    20 1   
    23    12    28 1   
    24    12    29 1   
    25    13    15 ar  
    26    13    20 1   
    27    14    20 2   
    28    15    16 ar  
    29    15    30 1   
    30    16    17 ar  
    31    16    31 1   
    32    18    20 2   
@<TRIPOS>SUBSTRUCTURE
     1 LC8         1 TEMP              0 ****  ****    0 ROOT
