@<TRIPOS>MOLECULE
LC8
   31    32     1     0     0
SMALL
No Charge or Current Charge


@<TRIPOS>ATOM
      1 O3          -5.5440     6.2450    13.4580 o          1 LC8      -0.418500
      2 C4          -1.7300     5.9360    14.6650 c3         1 LC8       0.203500
      3 C5          -1.3560     7.2210    13.9670 cc         1 LC8       0.073300
      4 O4          -7.0100     5.7120    14.9780 o          1 LC8      -0.418500
      5 C6          -0.2290     7.5710    13.2730 cd         1 LC8      -0.141000
      6 N1          -3.0090     5.4120    14.1470 nu         1 LC8      -0.929200
      7 C7          -0.4150     8.8950    12.8270 cd         1 LC8      -0.192000
      8 C8          -1.6470     9.3020    13.2640 cc         1 LC8       0.147900
      9 N2          -5.9330     5.5380    14.3970 no         1 LC8       0.710200
     10 C9          -5.1210     4.3560    14.7850 ca         1 LC8      -0.316200
     11 C10         -5.7880     3.2340    15.3250 ca         1 LC8       0.110000
     12 N           -6.2620    -0.1780    15.0630 n8         1 LC8      -1.010100
     13 C           -5.0570     2.1010    15.7190 ca         1 LC8      -0.365500
     14 O           -4.9920    -0.1730    17.1350 o          1 LC8      -0.542500
     15 C1          -3.6620     2.0750    15.5780 ca         1 LC8       0.085000
     16 C2          -3.0040     3.1910    15.0490 ca         1 LC8      -0.247000
     17 C3          -3.7190     4.3310    14.6540 ca         1 LC8       0.461000
     18 O1          -7.2190     1.0700    16.9150 o          1 LC8      -0.542500
     19 O2          -2.2430     8.2790    13.9700 os         1 LC8      -0.231000
     20 S           -5.9100     0.6880    16.3950 sy         1 LC8       1.144600
     21 H1          -0.9240     5.2050    14.5200 h1         1 LC8       0.068200
     22 H2          -1.8100     6.1360    15.7430 h1         1 LC8       0.068200
     23 H3           0.6390     6.9410    13.1020 ha         1 LC8       0.145000
     24 H4          -3.6100     6.1070    13.6950 hn         1 LC8       0.545000
     25 H5           0.2820     9.4890    12.2450 ha         1 LC8       0.149000
     26 H6          -2.1910    10.2300    13.1530 h4         1 LC8       0.059100
     27 H7          -6.8750     3.2380    15.4310 ha         1 LC8       0.172000
     28 H8          -5.8470    -1.0720    15.3140 hn         1 LC8       0.475000
     29 H9          -7.2520    -0.3540    15.2180 hn         1 LC8       0.475000
     30 H10         -3.0850     1.1990    15.8740 ha         1 LC8       0.138000
     31 H11         -1.9250     3.1610    14.9390 ha         1 LC8       0.126000
@<TRIPOS>BOND
     1     1     9 1   
     2     2     3 1   
     3     2     6 1   
     4     2    21 1   
     5     2    22 1   
     6     3     5 2   
     7     3    19 1   
     8     4     9 1   
     9     5     7 1   
    10     5    23 1   
    11     6    17 1   
    12     6    24 1   
    13     7     8 2   
    14     7    25 1   
    15     8    19 1   
    16     8    26 1   
    17     9    10 1   
    18    10    11 ar  
    19    10    17 ar  
    20    11    13 ar  
    21    11    27 1   
    22    12    20 1   
    23    12    28 1   
    24    12    29 1   
    25    13    15 ar  
    26    13    20 1   
    27    14    20 2   
    28    15    16 ar  
    29    15    30 1   
    30    16    17 ar  
    31    16    31 1   
    32    18    20 2   
@<TRIPOS>SUBSTRUCTURE
     1 LC8         1 TEMP              0 ****  ****    0 ROOT
