@<TRIPOS>MOLECULE
LC9
   21    22     1     0     0
SMALL
bcc


@<TRIPOS>ATOM
      1 C1         -19.7070   -20.7060    -4.9490 c3         1 LC9       0.226000
      2 C6         -15.3980   -17.5210    -5.3400 ca         1 LC9      -0.108000
      3 C2         -18.7140   -19.8370    -4.2530 cc         1 LC9      -0.141400
      4 C4         -16.9590   -18.4370    -3.8050 ca         1 LC9      -0.050200
      5 C9         -17.6330   -19.1080    -4.8490 ca         1 LC9      -0.080800
      6 C8         -17.1650   -18.9660    -6.1610 ca         1 LC9      -0.064000
      7 C3         -18.6530   -19.5740    -2.9140 cd         1 LC9      -0.113100
      8 C5         -15.8390   -17.6380    -4.0360 ca         1 LC9      -0.153000
      9 C7         -16.0540   -18.1780    -6.3940 ca         1 LC9      -0.166000
     10 N1         -20.4990   -19.9450    -5.9090 n8         1 LC9      -0.881800
     11 N2         -17.6050   -18.7390    -2.6420 na         1 LC9      -0.175400
     12 H3         -20.3090   -21.2280    -4.1930 h1         1 LC9       0.029200
     13 H4         -19.1790   -21.4860    -5.5070 h1         1 LC9       0.029200
     14 H10        -17.6720   -19.4590    -6.9810 ha         1 LC9       0.142000
     15 H5         -19.2900   -19.9320    -2.1190 h4         1 LC9       0.157000
     16 H7         -15.3330   -17.1300    -3.2240 ha         1 LC9       0.128000
     17 H9         -15.6830   -18.0590    -7.4040 ha         1 LC9       0.127000
     18 H1         -21.1290   -20.5710    -6.3930 hn         1 LC9       0.336300
     19 H2         -21.0870   -19.2900    -5.4090 hn         1 LC9       0.336300
     20 H6         -17.3530   -18.4050    -1.7270 hn         1 LC9       0.298700
     21 H8         -14.5320   -16.9080    -5.5540 ha         1 LC9       0.125000
@<TRIPOS>BOND
     1     1     3 1   
     2     1    10 1   
     3     1    12 1   
     4     1    13 1   
     5     2     8 ar  
     6     2     9 ar  
     7     2    21 1   
     8     3     5 1   
     9     3     7 2   
    10     4     5 ar  
    11     4     8 ar  
    12     4    11 1   
    13     5     6 ar  
    14     6     9 ar  
    15     6    14 1   
    16     7    11 1   
    17     7    15 1   
    18     8    16 1   
    19     9    17 1   
    20    10    18 1   
    21    10    19 1   
    22    11    20 1   
@<TRIPOS>SUBSTRUCTURE
     1 LC9         1 TEMP              0 ****  ****    0 ROOT
