@<TRIPOS>MOLECULE
LC9
   21    22     1     0     0
SMALL
No Charge or Current Charge


@<TRIPOS>ATOM
      1 C1         -19.6410   -20.6890    -5.1260 c3         1 LC9       0.226000
      2 C6         -15.2950   -17.5430    -5.3210 ca         1 LC9      -0.090000
      3 C2         -18.7060   -19.7950    -4.3550 cc         1 LC9      -0.141400
      4 C4         -16.9850   -18.4150    -3.8340 ca         1 LC9      -0.050200
      5 C9         -17.5660   -19.0890    -4.8720 ca         1 LC9      -0.080800
      6 C8         -17.0500   -19.0250    -6.1760 ca         1 LC9      -0.046000
      7 C3         -18.7500   -19.4990    -2.9940 cd         1 LC9      -0.163100
      8 C5         -15.8400   -17.6270    -4.0220 ca         1 LC9      -0.135000
      9 C7         -15.8980   -18.2400    -6.3940 ca         1 LC9      -0.148000
     10 N1         -20.7950   -19.9290    -5.6300 n8         1 LC9      -0.992200
     11 N2         -17.6780   -18.6350    -2.6580 na         1 LC9      -0.225700
     12 H3         -20.0040   -21.4920    -4.4700 h1         1 LC9       0.029200
     13 H4         -19.1130   -21.1470    -5.9740 h1         1 LC9       0.029200
     14 H10        -17.5240   -19.5630    -6.9940 ha         1 LC9       0.124000
     15 H5         -19.4600   -19.8420    -2.2460 h4         1 LC9       0.207000
     16 H7         -15.3840   -17.0950    -3.1900 ha         1 LC9       0.110000
     17 H9         -15.4730   -18.1690    -7.3930 ha         1 LC9       0.109000
     18 H1         -21.4640   -20.5860    -6.0490 hn         1 LC9       0.391500
     19 H2         -21.3000   -19.5420    -4.8260 hn         1 LC9       0.391500
     20 H6         -17.4600   -18.2550    -1.7410 hn         1 LC9       0.349000
     21 H8         -14.4070   -16.9390    -5.4970 ha         1 LC9       0.107000
@<TRIPOS>BOND
     1     1     3 1   
     2     1    10 1   
     3     1    12 1   
     4     1    13 1   
     5     2     8 ar  
     6     2     9 ar  
     7     2    21 1   
     8     3     5 1   
     9     3     7 2   
    10     4     5 ar  
    11     4     8 ar  
    12     4    11 1   
    13     5     6 ar  
    14     6     9 ar  
    15     6    14 1   
    16     7    11 1   
    17     7    15 1   
    18     8    16 1   
    19     9    17 1   
    20    10    18 1   
    21    10    19 1   
    22    11    20 1   
@<TRIPOS>SUBSTRUCTURE
     1 LC9         1 TEMP              0 ****  ****    0 ROOT
