@<TRIPOS>MOLECULE
LCD
   41    43     1     0     0
SMALL
bcc


@<TRIPOS>ATOM
      1 CAB         -6.9340     1.3280     0.0720 c3         1 LCD       0.124700
      2 OAO         -6.5350    -0.0270     0.0360 os         1 LCD      -0.303900
      3 CAV         -5.2190    -0.3000     0.0120 ca         1 LCD       0.098100
      4 CAK         -4.2130     0.6430     0.0330 ca         1 LCD      -0.178000
      5 CAU         -4.8830    -1.6710    -0.0380 ca         1 LCD       0.114100
      6 OAN         -5.9170    -2.5210    -0.0560 os         1 LCD      -0.301900
      7 CAA         -5.6460    -3.9090    -0.1010 c3         1 LCD       0.124700
      8 CAH         -3.5460    -2.0390    -0.0660 ca         1 LCD      -0.197000
      9 CAG         -2.5390    -1.0830    -0.0440 ca         1 LCD      -0.091000
     10 CAS         -2.8540     0.2730     0.0060 ca         1 LCD      -0.045800
     11 CAF         -1.8840     1.3480     0.0290 ce         1 LCD      -0.085200
     12 CAX         -0.5460     1.3260     0.0250 cd         1 LCD      -0.026100
     13 CAW          0.3390     2.5190     0.0470 c          1 LCD       0.590900
     14 OAD         -0.0170     3.6840     0.0710 o          1 LCD      -0.537100
     15 OAQ          0.2220     0.1890    -0.0010 os         1 LCD      -0.214200
     16 CAY          1.5250     0.5670     0.0030 ca         1 LCD       0.173100
     17 CAL          2.5880    -0.3020    -0.0150 ca         1 LCD      -0.222000
     18 CAZ          1.6720     1.9500     0.0290 ca         1 LCD      -0.339600
     19 CAJ          2.9460     2.5040     0.0320 ca         1 LCD       0.021000
     20 CAI          4.0440     1.6660     0.0110 ca         1 LCD      -0.282000
     21 CAT          3.8700     0.2660    -0.0100 ca         1 LCD       0.239100
     22 OAP          4.8790    -0.6000    -0.0250 os         1 LCD      -0.255900
     23 CAM          6.2160    -0.1170    -0.0170 c3         1 LCD      -0.025600
     24 CAR          7.2160    -1.2840    -0.0070 c          1 LCD       0.940600
     25 OAE          6.7780    -2.4410     0.0400 o          1 LCD      -0.810300
     26 OAC          8.4030    -0.9100    -0.0430 o          1 LCD      -0.810300
     27 H1          -8.0210     1.3300     0.0820 h1         1 LCD       0.036700
     28 H2          -6.5730     1.8360     0.9710 h1         1 LCD       0.036700
     29 H3          -6.5880     1.8780    -0.8070 h1         1 LCD       0.036700
     30 H4          -4.4550     1.6970     0.0750 ha         1 LCD       0.135000
     31 H5          -5.1020    -4.1890    -1.0060 h1         1 LCD       0.038367
     32 H6          -5.0770    -4.2400     0.7720 h1         1 LCD       0.038367
     33 H7          -6.6110    -4.4100    -0.1020 h1         1 LCD       0.038367
     34 H8          -3.2640    -3.0830    -0.1070 ha         1 LCD       0.137000
     35 H9          -1.5140    -1.4210    -0.0690 ha         1 LCD       0.157000
     36 H10         -2.2930     2.3530     0.0550 ha         1 LCD       0.144000
     37 H11          2.4590    -1.3760    -0.0320 ha         1 LCD       0.168000
     38 H12          3.0830     3.5770     0.0500 ha         1 LCD       0.134000
     39 H13          5.0330     2.0990     0.0120 ha         1 LCD       0.150000
     40 H14          6.3980     0.5080    -0.8970 h1         1 LCD       0.025200
     41 H15          6.3850     0.5070     0.8680 h1         1 LCD       0.025200
@<TRIPOS>BOND
     1     1     2 1   
     2     1    27 1   
     3     1    28 1   
     4     1    29 1   
     5     2     3 1   
     6     3     4 ar  
     7     3     5 ar  
     8     4    10 ar  
     9     4    30 1   
    10     5     6 1   
    11     5     8 ar  
    12     6     7 1   
    13     7    31 1   
    14     7    32 1   
    15     7    33 1   
    16     8     9 ar  
    17     8    34 1   
    18     9    10 ar  
    19     9    35 1   
    20    10    11 1   
    21    11    12 2   
    22    11    36 1   
    23    12    13 1   
    24    12    15 1   
    25    13    14 2   
    26    13    18 1   
    27    15    16 1   
    28    16    17 ar  
    29    16    18 ar  
    30    17    21 ar  
    31    17    37 1   
    32    18    19 ar  
    33    19    20 ar  
    34    19    38 1   
    35    20    21 ar  
    36    20    39 1   
    37    21    22 1   
    38    22    23 1   
    39    23    24 1   
    40    23    40 1   
    41    23    41 1   
    42    24    25 1   
    43    24    26 1   
@<TRIPOS>SUBSTRUCTURE
     1 LCD         1 TEMP              0 ****  ****    0 ROOT
