@<TRIPOS>MOLECULE
LCD
   41    43     1     0     0
SMALL
No Charge or Current Charge


@<TRIPOS>ATOM
      1 CAB         -6.9060     1.2250     1.0690 c3         1 LCD       0.147900
      2 OAO         -6.4630    -0.0930     0.6990 os         1 LCD      -0.327100
      3 CAV         -5.1870    -0.3450     0.2200 ca         1 LCD       0.098100
      4 CAK         -4.2340     0.6890     0.0620 ca         1 LCD      -0.160000
      5 CAU         -4.8410    -1.6740    -0.1190 ca         1 LCD       0.114100
      6 OAN         -5.7900    -2.6710     0.0430 os         1 LCD      -0.325100
      7 CAA         -5.5260    -4.0490    -0.2740 c3         1 LCD       0.147900
      8 CAH         -3.5480    -1.9520    -0.6140 ca         1 LCD      -0.179000
      9 CAG         -2.6100    -0.9170    -0.7650 ca         1 LCD      -0.073000
     10 CAS         -2.9420     0.4070    -0.4200 ca         1 LCD      -0.045800
     11 CAF         -1.9690     1.5270    -0.5790 ce         1 LCD      -0.135200
     12 CAX         -0.5930     1.5350    -0.4920 cd         1 LCD      -0.026100
     13 CAW          0.3770     2.6600    -0.5820 c          1 LCD       0.590900
     14 OAD          0.1660     3.8490    -0.7840 o          1 LCD      -0.537100
     15 OAQ          0.1060     0.3800    -0.2350 os         1 LCD      -0.214200
     16 CAY          1.4440     0.6670    -0.1600 ca         1 LCD       0.173100
     17 CAL          2.4800    -0.2340     0.0810 ca         1 LCD      -0.204000
     18 CAZ          1.6850     2.0110    -0.3590 ca         1 LCD      -0.339600
     19 CAJ          2.9770     2.5450    -0.3300 ca         1 LCD       0.039000
     20 CAI          4.0420     1.6510    -0.0870 ca         1 LCD      -0.264000
     21 CAT          3.7970     0.2650     0.1180 ca         1 LCD       0.239100
     22 OAP          4.8140    -0.6360     0.3570 os         1 LCD      -0.279100
     23 CAM          6.2040    -0.2360     0.4160 c3         1 LCD      -0.002400
     24 CAR          7.1690    -1.4230     0.6980 c          1 LCD       0.730000
     25 OAE          6.7130    -2.5520     0.8410 o          1 LCD      -0.705000
     26 OAC          8.3660    -1.1750     0.7650 o          1 LCD      -0.705000
     27 H1          -7.9450     1.1910     1.4210 h1         1 LCD       0.036700
     28 H2          -6.2860     1.6310     1.8790 h1         1 LCD       0.036700
     29 H3          -6.8590     1.9070     0.2110 h1         1 LCD       0.036700
     30 H4          -4.4790     1.7150     0.3170 ha         1 LCD       0.117000
     31 H5          -5.2730    -4.1630    -1.3360 h1         1 LCD       0.038367
     32 H6          -4.6970    -4.4360     0.3310 h1         1 LCD       0.038367
     33 H7          -6.4120    -4.6620    -0.0690 h1         1 LCD       0.038367
     34 H8          -3.2530    -2.9600    -0.8910 ha         1 LCD       0.119000
     35 H9          -1.6270    -1.1510    -1.1660 ha         1 LCD       0.139000
     36 H10         -2.4170     2.5090    -0.7380 ha         1 LCD       0.194000
     37 H11          2.2780    -1.2890     0.2350 ha         1 LCD       0.150000
     38 H12          3.1550     3.6070    -0.4870 ha         1 LCD       0.116000
     39 H13          5.0510     2.0500    -0.0620 ha         1 LCD       0.132000
     40 H14          6.5080     0.2180    -0.5350 h1         1 LCD       0.025200
     41 H15          6.3510     0.5040     1.2130 h1         1 LCD       0.025200
@<TRIPOS>BOND
     1     1     2 1   
     2     1    27 1   
     3     1    28 1   
     4     1    29 1   
     5     2     3 1   
     6     3     4 ar  
     7     3     5 ar  
     8     4    10 ar  
     9     4    30 1   
    10     5     6 1   
    11     5     8 ar  
    12     6     7 1   
    13     7    31 1   
    14     7    32 1   
    15     7    33 1   
    16     8     9 ar  
    17     8    34 1   
    18     9    10 ar  
    19     9    35 1   
    20    10    11 1   
    21    11    12 2   
    22    11    36 1   
    23    12    13 1   
    24    12    15 1   
    25    13    14 2   
    26    13    18 1   
    27    15    16 1   
    28    16    17 ar  
    29    16    18 ar  
    30    17    21 ar  
    31    17    37 1   
    32    18    19 ar  
    33    19    20 ar  
    34    19    38 1   
    35    20    21 ar  
    36    20    39 1   
    37    21    22 1   
    38    22    23 1   
    39    23    24 1   
    40    23    40 1   
    41    23    41 1   
    42    24    25 1   
    43    24    26 1   
@<TRIPOS>SUBSTRUCTURE
     1 LCD         1 TEMP              0 ****  ****    0 ROOT
