@<TRIPOS>MOLECULE
LCE
   22    23     1     0     0
SMALL
abcg2


@<TRIPOS>ATOM
      1 CAA          2.9390     2.2990    -1.0840 c3         1 LCE       0.140900
      2 OAD          3.6250    -1.1720     1.0580 o          1 LCE      -0.711500
      3 OAE          2.4480    -2.3380    -0.4360 o          1 LCE      -0.711500
      4 OAF         -1.3990    -1.6990     1.7010 o          1 LCE      -0.458100
      5 CLAG        -2.8010    -0.9130    -1.3510 cl         1 LCE      -0.221000
      6 CLAH        -3.0020     1.0540     0.7810 cl         1 LCE      -0.221000
      7 OAK          2.3930     1.0340    -0.7920 os         1 LCE      -0.402000
      8 SAM          0.1210     1.8290     0.3800 ss         1 LCE      -0.569000
      9 CAN          2.6020    -1.4310     0.3980 c          1 LCE       0.744000
     10 CAP          1.7420     0.9550     0.4280 c5         1 LCE       0.384300
     11 CAQ         -0.5790     0.4870    -0.6140 cy         1 LCE       0.086300
     12 CAR          1.3940    -0.5060     0.6990 c5         1 LCE      -0.189700
     13 CAS          0.1180    -0.7990    -0.0850 cy         1 LCE      -0.131700
     14 CAT         -1.9250    -0.0280    -0.0770 cy         1 LCE       0.192000
     15 CAU         -1.1300    -1.0580     0.7360 c          1 LCE       0.596100
     16 HAA          3.4830     2.2110    -2.0230 h1         1 LCE       0.026033
     17 HAAA         2.1640     3.0620    -1.2000 h1         1 LCE       0.026033
     18 HAAB         3.6340     2.6290    -0.3050 h1         1 LCE       0.026033
     19 HAP          2.3250     1.4060     1.2390 h2         1 LCE       0.076700
     20 HAQ         -0.5540     0.6950    -1.6810 h1         1 LCE       0.105700
     21 HAR          1.1910    -0.5900     1.7710 hc         1 LCE       0.070700
     22 HAS          0.2690    -1.5630    -0.8510 hc         1 LCE       0.140700
@<TRIPOS>BOND
     1     1     7 1   
     2     1    16 1   
     3     1    17 1   
     4     1    18 1   
     5     2     9 1   
     6     3     9 1   
     7     4    15 2   
     8     5    14 1   
     9     6    14 1   
    10     7    10 1   
    11     8    10 1   
    12     8    11 1   
    13     9    12 1   
    14    10    12 1   
    15    10    19 1   
    16    11    13 1   
    17    11    14 1   
    18    11    20 1   
    19    12    13 1   
    20    12    21 1   
    21    13    15 1   
    22    13    22 1   
    23    14    15 1   
@<TRIPOS>SUBSTRUCTURE
     1 LCE         1 TEMP              0 ****  ****    0 ROOT
