@<TRIPOS>MOLECULE
LCE
   22    23     1     0     0
SMALL
No Charge or Current Charge


@<TRIPOS>ATOM
      1 CAA          2.8890     2.3350    -1.2610 c3         1 LCE       0.140900
      2 OAD          3.1400    -2.0150     1.4750 o          1 LCE      -0.711500
      3 OAE          2.9120    -1.7410    -0.6270 o          1 LCE      -0.711500
      4 OAF         -1.4250    -1.7680     1.7220 o          1 LCE      -0.458100
      5 ClAG        -2.8620    -0.9370    -1.4680 cl         1 LCE      -0.221000
      6 ClAH        -3.1520     0.9600     0.7360 cl         1 LCE      -0.221000
      7 OAK          2.3630     1.0660    -0.8440 os         1 LCE      -0.402000
      8 SAM          0.1870     1.9050     0.4740 ss         1 LCE      -0.569000
      9 CAN          2.6090    -1.4610     0.5240 c          1 LCE       0.744000
     10 CAP          1.8200     0.9910     0.4900 c5         1 LCE       0.384300
     11 CAQ         -0.5670     0.5300    -0.5080 cy         1 LCE       0.086300
     12 CAR          1.4390    -0.4940     0.8180 c5         1 LCE      -0.189700
     13 CAS          0.1500    -0.7650    -0.0370 cy         1 LCE      -0.131700
     14 CAT         -1.9680    -0.0820    -0.1500 cy         1 LCE       0.192000
     15 CAU         -1.1550    -1.0510     0.7630 c          1 LCE       0.596100
     16 HAA          3.3110     2.2580    -2.2700 h1         1 LCE       0.026033
     17 HAAA         2.1050     3.1030    -1.2790 h1         1 LCE       0.026033
     18 HAAB         3.6850     2.6670    -0.5820 h1         1 LCE       0.026033
     19 HAP          2.5200     1.4130     1.2230 h2         1 LCE       0.076700
     20 HAQ         -0.4510     0.7140    -1.5830 h1         1 LCE       0.105700
     21 HAR          1.2370    -0.5380     1.8940 hc         1 LCE       0.070700
     22 HAS          0.2700    -1.5270    -0.8160 hc         1 LCE       0.140700
@<TRIPOS>BOND
     1     1     7 1   
     2     1    16 1   
     3     1    17 1   
     4     1    18 1   
     5     2     9 1   
     6     3     9 1   
     7     4    15 2   
     8     5    14 1   
     9     6    14 1   
    10     7    10 1   
    11     8    10 1   
    12     8    11 1   
    13     9    12 1   
    14    10    12 1   
    15    10    19 1   
    16    11    13 1   
    17    11    14 1   
    18    11    20 1   
    19    12    13 1   
    20    12    21 1   
    21    13    15 1   
    22    13    22 1   
    23    14    15 1   
@<TRIPOS>SUBSTRUCTURE
     1 LCE         1 TEMP              0 ****  ****    0 ROOT
