@<TRIPOS>MOLECULE
LCF
   48    51     1     0     0
SMALL
No Charge or Current Charge


@<TRIPOS>ATOM
      1 C1           0.5650    -3.2740     0.7410 cc         1 LCF      -0.013300
      2 C2           3.1080    -3.3380     0.1540 c5         1 LCF       0.077600
      3 C3           3.9420    -2.1570    -0.5070 c5         1 LCF      -0.072000
      4 C4           3.1400    -0.8650    -0.0150 c5         1 LCF       0.003900
      5 C5           1.8130    -1.4170     0.4060 cc         1 LCF      -0.196300
      6 C6           0.5170    -0.9860     0.4610 cd         1 LCF      -0.094000
      7 C7          -0.2610    -2.1540     0.7990 cd         1 LCF      -0.161000
      8 N            1.8320    -2.7570     0.4830 na         1 LCF       0.042000
      9 C8           0.2520    -4.7390     0.9970 c3         1 LCF      -0.184100
     10 C9           1.3210    -5.4910     1.8060 c          1 LCF       0.718000
     11 O1           2.1820    -6.1070     1.1960 o          1 LCF      -0.723500
     12 O2           1.3140    -5.3680     3.0220 o          1 LCF      -0.723500
     13 C10          3.9130    -2.2670    -2.0550 c3         1 LCF      -0.081100
     14 C11          5.4210    -2.1510    -0.0480 c3         1 LCF      -0.081100
     15 C12          0.0730     0.4190     0.2890 ca         1 LCF       0.034000
     16 C13          0.9310     1.4910     0.6180 ca         1 LCF      -0.102500
     17 C14          0.5210     2.8240     0.4390 ca         1 LCF      -0.122000
     18 C15         -0.7490     3.1050    -0.0860 ca         1 LCF      -0.128000
     19 C16         -1.6050     2.0510    -0.4390 ca         1 LCF      -0.122000
     20 C17         -1.1940     0.7190    -0.2570 ca         1 LCF      -0.102500
     21 C18         -1.7230    -2.1860     1.0310 ca         1 LCF       0.042000
     22 C19         -2.5320    -3.2130     0.4980 ca         1 LCF      -0.098000
     23 C20         -3.9180    -3.2310     0.7360 ca         1 LCF      -0.114000
     24 C21         -4.5100    -2.2260     1.5160 ca         1 LCF       0.102000
     25 C22         -3.7190    -1.2030     2.0570 ca         1 LCF      -0.114000
     26 C23         -2.3340    -1.1850     1.8170 ca         1 LCF      -0.098000
     27 Cl1         -6.2430    -2.2500     1.8130 cl         1 LCF      -0.251000
     28 H21          2.9880    -4.1920    -0.5240 h1         1 LCF       0.066700
     29 H22A         3.5840    -3.6970     1.0750 h1         1 LCF       0.066700
     30 H41          3.0430    -0.1070    -0.8010 hc         1 LCF       0.046200
     31 H42          3.6370    -0.3840     0.8360 hc         1 LCF       0.046200
     32 H81          0.1310    -5.2130     0.0160 hc         1 LCF       0.044700
     33 H82         -0.6630    -4.7460     1.5980 hc         1 LCF       0.044700
     34 H101         2.8840    -2.2740    -2.4330 hc         1 LCF       0.036033
     35 H102         4.4320    -1.4220    -2.5250 hc         1 LCF       0.036033
     36 H103         4.3980    -3.1890    -2.3990 hc         1 LCF       0.036033
     37 H111         5.9380    -3.0680    -0.3560 hc         1 LCF       0.036033
     38 H112         5.9670    -1.3000    -0.4730 hc         1 LCF       0.036033
     39 H113         5.4970    -2.0800     1.0440 hc         1 LCF       0.036033
     40 H13          1.9100     1.2990     1.0460 ha         1 LCF       0.116000
     41 H14          1.1890     3.6390     0.7110 ha         1 LCF       0.099000
     42 H15         -1.0660     4.1360    -0.2270 ha         1 LCF       0.096000
     43 H16         -2.5840     2.2640    -0.8620 ha         1 LCF       0.099000
     44 H17         -1.8560    -0.0800    -0.5760 ha         1 LCF       0.116000
     45 H19         -2.0960    -3.9820    -0.1330 ha         1 LCF       0.135500
     46 H20         -4.5330    -4.0210     0.3120 ha         1 LCF       0.115500
     47 H22         -4.1760    -0.4270     2.6660 ha         1 LCF       0.115500
     48 H23         -1.7270    -0.3990     2.2600 ha         1 LCF       0.135500
@<TRIPOS>BOND
     1     1     7 2   
     2     1     8 1   
     3     1     9 1   
     4     2     3 1   
     5     2     8 1   
     6     2    28 1   
     7     2    29 1   
     8     3     4 1   
     9     3    13 1   
    10     3    14 1   
    11     4     5 1   
    12     4    30 1   
    13     4    31 1   
    14     5     6 2   
    15     5     8 1   
    16     6     7 1   
    17     6    15 1   
    18     7    21 1   
    19     9    10 1   
    20     9    32 1   
    21     9    33 1   
    22    10    11 1   
    23    10    12 1   
    24    13    34 1   
    25    13    35 1   
    26    13    36 1   
    27    14    37 1   
    28    14    38 1   
    29    14    39 1   
    30    15    16 ar  
    31    15    20 ar  
    32    16    17 ar  
    33    16    40 1   
    34    17    18 ar  
    35    17    41 1   
    36    18    19 ar  
    37    18    42 1   
    38    19    20 ar  
    39    19    43 1   
    40    20    44 1   
    41    21    22 ar  
    42    21    26 ar  
    43    22    23 ar  
    44    22    45 1   
    45    23    24 ar  
    46    23    46 1   
    47    24    25 ar  
    48    24    27 1   
    49    25    26 ar  
    50    25    47 1   
    51    26    48 1   
@<TRIPOS>SUBSTRUCTURE
     1 LCF         1 TEMP              0 ****  ****    0 ROOT
