@<TRIPOS>MOLECULE
LCF
   48    51     1     0     0
SMALL
bcc


@<TRIPOS>ATOM
      1 C1           0.6010    -3.2790     0.4420 cc         1 LCF       0.037400
      2 C2           3.0210    -3.3640    -0.4740 c5         1 LCF       0.048300
      3 C3           3.8940    -2.0940    -0.6150 c5         1 LCF      -0.072000
      4 C4           2.8790    -1.0150    -1.0780 c5         1 LCF       0.003900
      5 C5           1.6100    -1.4960    -0.4650 cc         1 LCF      -0.145600
      6 C6           0.3580    -1.0730    -0.1040 cd         1 LCF      -0.094000
      7 C7          -0.2890    -2.2150     0.4860 cd         1 LCF      -0.161000
      8 N            1.7280    -2.8090    -0.1440 na         1 LCF      -0.030100
      9 C8           0.4710    -4.6870     0.8860 c3         1 LCF      -0.184100
     10 C9           1.2300    -5.0420     2.1890 c          1 LCF       0.928600
     11 O1           1.2330    -6.2520     2.4920 o          1 LCF      -0.828800
     12 O2           1.7540    -4.1080     2.8220 o          1 LCF      -0.828800
     13 C10          5.0300    -2.2860    -1.6080 c3         1 LCF      -0.081100
     14 C11          4.4460    -1.7180     0.7600 c3         1 LCF      -0.081100
     15 C12         -0.1430     0.3070    -0.2290 ca         1 LCF       0.034000
     16 C13          0.3280     1.3060     0.6240 ca         1 LCF      -0.120500
     17 C14         -0.1130     2.6170     0.5040 ca         1 LCF      -0.140000
     18 C15         -1.0400     2.9540    -0.4740 ca         1 LCF      -0.146000
     19 C16         -1.5160     1.9720    -1.3330 ca         1 LCF      -0.140000
     20 C17         -1.0680     0.6630    -1.2110 ca         1 LCF      -0.120500
     21 C18         -1.5960    -2.2420     1.1480 ca         1 LCF       0.042000
     22 C19         -2.7560    -1.7740     0.5260 ca         1 LCF      -0.116000
     23 C20         -3.9830    -1.7900     1.1720 ca         1 LCF      -0.132000
     24 C21         -4.0610    -2.2930     2.4620 ca         1 LCF       0.010400
     25 C22         -2.9330    -2.7720     3.1080 ca         1 LCF      -0.132000
     26 C23         -1.7120    -2.7350     2.4510 ca         1 LCF      -0.116000
     27 CL1         -5.5940    -2.3220     3.2770 cl         1 LCF      -0.159400
     28 H21          2.9740    -3.9330    -1.4090 h1         1 LCF       0.066700
     29 H22A         3.3830    -4.0280     0.3110 h1         1 LCF       0.066700
     30 H41          2.8080    -0.9920    -2.1710 hc         1 LCF       0.046200
     31 H42          3.1680    -0.0130    -0.7550 hc         1 LCF       0.046200
     32 H81          0.8080    -5.3660     0.0930 hc         1 LCF       0.044700
     33 H82         -0.5860    -4.9220     1.0350 hc         1 LCF       0.044700
     34 H101         4.6530    -2.5330    -2.6020 hc         1 LCF       0.036033
     35 H102         5.6250    -1.3750    -1.6920 hc         1 LCF       0.036033
     36 H103         5.7000    -3.0890    -1.2950 hc         1 LCF       0.036033
     37 H111         5.1460    -2.4750     1.1190 hc         1 LCF       0.036033
     38 H112         4.9790    -0.7660     0.7160 hc         1 LCF       0.036033
     39 H113         3.6520    -1.6240     1.5020 hc         1 LCF       0.036033
     40 H13          1.0470     1.0500     1.3930 ha         1 LCF       0.134000
     41 H14          0.2660     3.3760     1.1770 ha         1 LCF       0.117000
     42 H15         -1.3870     3.9750    -0.5680 ha         1 LCF       0.114000
     43 H16         -2.2320     2.2240    -2.1040 ha         1 LCF       0.117000
     44 H17         -1.4320    -0.0910    -1.8980 ha         1 LCF       0.134000
     45 H19         -2.7090    -1.4040    -0.4890 ha         1 LCF       0.153500
     46 H20         -4.8680    -1.4260     0.6690 ha         1 LCF       0.133500
     47 H22         -2.9970    -3.1570     4.1170 ha         1 LCF       0.133500
     48 H23         -0.8230    -3.0790     2.9660 ha         1 LCF       0.153500
@<TRIPOS>BOND
     1     1     7 2   
     2     1     8 1   
     3     1     9 1   
     4     2     3 1   
     5     2     8 1   
     6     2    28 1   
     7     2    29 1   
     8     3     4 1   
     9     3    13 1   
    10     3    14 1   
    11     4     5 1   
    12     4    30 1   
    13     4    31 1   
    14     5     6 2   
    15     5     8 1   
    16     6     7 1   
    17     6    15 1   
    18     7    21 1   
    19     9    10 1   
    20     9    32 1   
    21     9    33 1   
    22    10    11 1   
    23    10    12 1   
    24    13    34 1   
    25    13    35 1   
    26    13    36 1   
    27    14    37 1   
    28    14    38 1   
    29    14    39 1   
    30    15    16 ar  
    31    15    20 ar  
    32    16    17 ar  
    33    16    40 1   
    34    17    18 ar  
    35    17    41 1   
    36    18    19 ar  
    37    18    42 1   
    38    19    20 ar  
    39    19    43 1   
    40    20    44 1   
    41    21    22 ar  
    42    21    26 ar  
    43    22    23 ar  
    44    22    45 1   
    45    23    24 ar  
    46    23    46 1   
    47    24    25 ar  
    48    24    27 1   
    49    25    26 ar  
    50    25    47 1   
    51    26    48 1   
@<TRIPOS>SUBSTRUCTURE
     1 LCF         1 TEMP              0 ****  ****    0 ROOT
