@<TRIPOS>MOLECULE
LCI
   51    54     1     0     0
SMALL
abcg2


@<TRIPOS>ATOM
      1 F           -2.2050     3.1450    -0.9240 f          1 LCI      -0.155000
      2 C6          -1.2270     2.3520    -0.4540 ca         1 LCI       0.013000
      3 C5           0.0840     2.7450    -0.5720 ca         1 LCI       0.116900
      4 N2           1.0870     1.9910    -0.1490 nb         1 LCI      -0.250000
      5 C7          -1.5120     1.1180     0.1330 ca         1 LCI       0.275500
      6 N5          -0.4980     0.3730     0.5580 nb         1 LCI      -0.255000
      7 C4           0.7490     0.8230     0.4030 ca         1 LCI       0.372900
      8 N1           1.7340     0.0280     0.8770 nu         1 LCI      -0.930100
      9 C3           3.1420     0.2490     0.6390 c6         1 LCI       0.250500
     10 C2           3.9530    -0.5150     1.6810 c6         1 LCI      -0.094900
     11 C1           5.4510    -0.3260     1.4710 c6         1 LCI      -0.095900
     12 C16          3.5640    -0.1610    -0.7730 c6         1 LCI      -0.094900
     13 C17          5.0600     0.0390    -0.9880 c6         1 LCI      -0.095900
     14 C            5.8420    -0.7340     0.0610 c6         1 LCI       0.108300
     15 N            7.3050    -0.5130    -0.1390 nz         1 LCI      -0.976000
     16 C8          -2.8670     0.6140     0.2900 cc         1 LCI      -0.314500
     17 C15         -4.0720     1.3490     0.3320 cc         1 LCI       0.288900
     18 N4          -5.1070     0.5620     0.5090 nd         1 LCI      -0.512800
     19 N3          -4.6070    -0.6750     0.5750 na         1 LCI       0.139800
     20 C14         -5.5160    -1.7920     0.6890 c3         1 LCI       0.063900
     21 C9          -3.2690    -0.7110     0.4540 cd         1 LCI      -0.059300
     22 C10         -2.5060    -1.9920     0.4180 c3         1 LCI       0.002900
     23 C11         -2.5490    -2.6420    -0.9480 cx         1 LCI      -0.123700
     24 C13         -1.6430    -2.1480    -2.0320 cx         1 LCI      -0.128900
     25 C12         -1.3960    -3.4850    -1.3960 cx         1 LCI      -0.128900
     26 H1           0.3310     3.6970    -1.0310 h4         1 LCI       0.041100
     27 H2           1.4470    -0.8920     1.1730 hn         1 LCI       0.502000
     28 H3           3.3380     1.3180     0.7660 h1         1 LCI       0.089700
     29 H4           3.6810    -0.1800     2.6840 hc         1 LCI       0.075950
     30 H5           3.7090    -1.5820     1.6240 hc         1 LCI       0.075950
     31 H6           5.7170     0.7250     1.6310 hc         1 LCI       0.066200
     32 H7           6.0050    -0.9130     2.2060 hc         1 LCI       0.066200
     33 H8           3.3020    -1.2120    -0.9320 hc         1 LCI       0.075950
     34 H9           3.0100     0.4210    -1.5120 hc         1 LCI       0.075950
     35 H10          5.3420    -0.2900    -1.9910 hc         1 LCI       0.066200
     36 H11          5.3060     1.1030    -0.9150 hc         1 LCI       0.066200
     37 H12          5.6930    -1.8060    -0.0750 hx         1 LCI       0.105700
     38 H13          7.8650    -1.0550     0.5190 hn         1 LCI       0.509000
     39 H14          7.6050    -0.7870    -1.0750 hn         1 LCI       0.509000
     40 H15          7.5660     0.4660    -0.0160 hn         1 LCI       0.509000
     41 H16         -4.2170     2.4160     0.2760 h4         1 LCI       0.053100
     42 H17         -5.8220    -2.1510    -0.2930 h1         1 LCI       0.063033
     43 H18         -5.0480    -2.6070     1.2330 h1         1 LCI       0.063033
     44 H19         -6.3950    -1.4670     1.2380 h1         1 LCI       0.063033
     45 H20         -1.4740    -1.7850     0.6930 hc         1 LCI       0.069700
     46 H21         -2.8980    -2.6840     1.1690 hc         1 LCI       0.069700
     47 H22         -3.5310    -2.9760    -1.2680 hc         1 LCI       0.081700
     48 H23         -2.0220    -2.1270    -3.0460 hc         1 LCI       0.071450
     49 H24         -0.9610    -1.3400    -1.7980 hc         1 LCI       0.071450
     50 H25         -0.5490    -3.5780    -0.7260 hc         1 LCI       0.071450
     51 H26         -1.6050    -4.3760    -1.9740 hc         1 LCI       0.071450
@<TRIPOS>BOND
     1     1     2 1   
     2     2     3 ar  
     3     2     5 ar  
     4     3     4 ar  
     5     3    26 1   
     6     4     7 ar  
     7     5     6 ar  
     8     5    16 1   
     9     6     7 ar  
    10     7     8 1   
    11     8     9 1   
    12     8    27 1   
    13     9    10 1   
    14     9    12 1   
    15     9    28 1   
    16    10    11 1   
    17    10    29 1   
    18    10    30 1   
    19    11    14 1   
    20    11    31 1   
    21    11    32 1   
    22    12    13 1   
    23    12    33 1   
    24    12    34 1   
    25    13    14 1   
    26    13    35 1   
    27    13    36 1   
    28    14    15 1   
    29    14    37 1   
    30    15    38 1   
    31    15    39 1   
    32    15    40 1   
    33    16    17 1   
    34    16    21 2   
    35    17    18 2   
    36    17    41 1   
    37    18    19 1   
    38    19    20 1   
    39    19    21 1   
    40    20    42 1   
    41    20    43 1   
    42    20    44 1   
    43    21    22 1   
    44    22    23 1   
    45    22    45 1   
    46    22    46 1   
    47    23    24 1   
    48    23    25 1   
    49    23    47 1   
    50    24    25 1   
    51    24    48 1   
    52    24    49 1   
    53    25    50 1   
    54    25    51 1   
@<TRIPOS>SUBSTRUCTURE
     1 LCI         1 TEMP              0 ****  ****    0 ROOT
