@<TRIPOS>MOLECULE
LCI
   51    54     1     0     0
SMALL
No Charge or Current Charge


@<TRIPOS>ATOM
      1 F           -2.3700     3.2620    -0.8740 f          1 LCI      -0.155000
      2 C6          -1.3780     2.4670    -0.4120 ca         1 LCI       0.013000
      3 C5          -0.0460     2.9090    -0.4990 ca         1 LCI       0.116900
      4 N2           0.9780     2.1440    -0.0780 nb         1 LCI      -0.250000
      5 C7          -1.6230     1.1750     0.1230 ca         1 LCI       0.275500
      6 N5          -0.5820     0.4330     0.5580 nb         1 LCI      -0.255000
      7 C4           0.6520     0.9420     0.4290 ca         1 LCI       0.372900
      8 N1           1.6730     0.1180     0.8790 nu         1 LCI      -0.930100
      9 C3           3.1130     0.3160     0.6450 c6         1 LCI       0.250500
     10 C2           3.9150    -0.5430     1.6560 c6         1 LCI      -0.094900
     11 C1           5.4410    -0.4380     1.3970 c6         1 LCI      -0.095900
     12 C16          3.4710    -0.0810    -0.8120 c6         1 LCI      -0.094900
     13 C17          4.9970     0.0200    -1.0650 c6         1 LCI      -0.095900
     14 C            5.7780    -0.8480    -0.0540 c6         1 LCI       0.108300
     15 N            7.2790    -0.6610    -0.2900 nz         1 LCI      -0.976000
     16 C8          -2.9910     0.6390     0.2860 cc         1 LCI      -0.314500
     17 C15         -4.2060     1.3450     0.3080 cc         1 LCI       0.288900
     18 N4          -5.2680     0.5870     0.4600 nd         1 LCI      -0.512800
     19 N3          -4.7220    -0.6850     0.5370 na         1 LCI       0.139800
     20 C14         -5.6010    -1.8560     0.6890 c3         1 LCI       0.063900
     21 C9          -3.3180    -0.6910     0.4400 cd         1 LCI      -0.059300
     22 C10         -2.4990    -1.9730     0.4300 c3         1 LCI       0.002900
     23 C11         -2.2610    -2.4860    -0.9890 cx         1 LCI      -0.123700
     24 C13         -1.0020    -2.1580    -1.7590 cx         1 LCI      -0.128900
     25 C12         -1.2360    -3.5630    -1.2570 cx         1 LCI      -0.128900
     26 H1           0.2030     3.8840    -0.9140 h4         1 LCI       0.041100
     27 H2           1.3640    -0.7740     1.2650 hn         1 LCI       0.502000
     28 H3           3.3900     1.3710     0.8080 h1         1 LCI       0.089700
     29 H4           3.6910    -0.2180     2.6810 hc         1 LCI       0.075950
     30 H5           3.6050    -1.5950     1.5850 hc         1 LCI       0.075950
     31 H6           5.7780     0.5910     1.5870 hc         1 LCI       0.066200
     32 H7           5.9820    -1.0820     2.1040 hc         1 LCI       0.066200
     33 H8           3.1300    -1.1060    -1.0130 hc         1 LCI       0.075950
     34 H9           2.9370     0.5680    -1.5190 hc         1 LCI       0.075950
     35 H10          5.2240    -0.3030    -2.0900 hc         1 LCI       0.066200
     36 H11          5.3150     1.0690    -0.9880 hc         1 LCI       0.066200
     37 H12          5.5600    -1.9130    -0.2130 hx         1 LCI       0.105700
     38 H13          7.8590    -1.2260     0.3490 hn         1 LCI       0.509000
     39 H14          7.5720    -0.9300    -1.2410 hn         1 LCI       0.509000
     40 H15          7.5910     0.3140    -0.1640 hn         1 LCI       0.509000
     41 H16         -4.3550     2.4130     0.2290 h4         1 LCI       0.053100
     42 H17         -5.3920    -2.5770    -0.1110 h1         1 LCI       0.063033
     43 H18         -5.4160    -2.3270     1.6620 h1         1 LCI       0.063033
     44 H19         -6.6520    -1.5490     0.6300 h1         1 LCI       0.063033
     45 H20         -1.5510    -1.8550     0.9650 hc         1 LCI       0.069700
     46 H21         -3.0240    -2.7510     0.9950 hc         1 LCI       0.069700
     47 H22         -3.1830    -2.5490    -1.5640 hc         1 LCI       0.081700
     48 H23         -1.0960    -1.9780    -2.8280 hc         1 LCI       0.071450
     49 H24         -0.2230    -1.5800    -1.2710 hc         1 LCI       0.071450
     50 H25         -0.6270    -3.9100    -0.4260 hc         1 LCI       0.071450
     51 H26         -1.4840    -4.3280    -1.9890 hc         1 LCI       0.071450
@<TRIPOS>BOND
     1     1     2 1   
     2     2     3 ar  
     3     2     5 ar  
     4     3     4 ar  
     5     3    26 1   
     6     4     7 ar  
     7     5     6 ar  
     8     5    16 1   
     9     6     7 ar  
    10     7     8 1   
    11     8     9 1   
    12     8    27 1   
    13     9    10 1   
    14     9    12 1   
    15     9    28 1   
    16    10    11 1   
    17    10    29 1   
    18    10    30 1   
    19    11    14 1   
    20    11    31 1   
    21    11    32 1   
    22    12    13 1   
    23    12    33 1   
    24    12    34 1   
    25    13    14 1   
    26    13    35 1   
    27    13    36 1   
    28    14    15 1   
    29    14    37 1   
    30    15    38 1   
    31    15    39 1   
    32    15    40 1   
    33    16    17 1   
    34    16    21 2   
    35    17    18 2   
    36    17    41 1   
    37    18    19 1   
    38    19    20 1   
    39    19    21 1   
    40    20    42 1   
    41    20    43 1   
    42    20    44 1   
    43    21    22 1   
    44    22    23 1   
    45    22    45 1   
    46    22    46 1   
    47    23    24 1   
    48    23    25 1   
    49    23    47 1   
    50    24    25 1   
    51    24    48 1   
    52    24    49 1   
    53    25    50 1   
    54    25    51 1   
@<TRIPOS>SUBSTRUCTURE
     1 LCI         1 TEMP              0 ****  ****    0 ROOT
