@<TRIPOS>MOLECULE
LCJ
   39    41     1     0     0
SMALL
No Charge or Current Charge


@<TRIPOS>ATOM
      1 C10         -1.7510    -1.4300    -0.1180 cc         1 LCJ       0.367000
      2 C11         -2.0350    -3.7210     0.6270 cc         1 LCJ      -0.139000
      3 C12         -2.9620    -1.1280     0.5450 cd         1 LCJ      -0.259600
      4 C13         -3.2060    -3.4510     1.3580 cc         1 LCJ      -0.087000
      5 C14         -3.6760    -2.1600     1.3150 cd         1 LCJ      -0.086000
      6 C15         -0.3260    -3.3330    -0.7540 cc         1 LCJ       0.360700
      7 C16         -1.3600    -4.8940     0.3990 cd         1 LCJ      -0.072400
      8 C17          0.3990    -0.1720    -0.7090 ca         1 LCJ       0.244000
      9 C18         -3.5020     0.2720     0.4410 c          1 LCJ       0.629700
     10 C19          0.9610     0.7680    -1.6100 ca         1 LCJ       0.151000
     11 C20          1.2250    -0.7290     0.2900 ca         1 LCJ      -0.132000
     12 C21          2.3200     1.1160    -1.5330 ca         1 LCJ      -0.100000
     13 C22          2.5860    -0.3790     0.3660 ca         1 LCJ      -0.067000
     14 C23          3.1310     0.5380    -0.5470 ca         1 LCJ       0.197000
     15 C24         -6.2470     2.0040     0.3080 c3         1 LCJ       0.133600
     16 C25         -6.8370     3.4270     0.4630 c3         1 LCJ       0.163600
     17 F02          0.1900     1.3430    -2.5650 f          1 LCJ      -0.163000
     18 I01          5.2250     1.0740    -0.4220 i          1 LCJ      -0.290000
     19 N06         -1.3510    -2.7750    -0.0380 na         1 LCJ       0.017200
     20 N07         -0.9650    -0.5070    -0.7840 nu         1 LCJ      -0.967000
     21 N08         -0.2940    -4.6430    -0.4720 nd         1 LCJ      -0.544300
     22 N09         -4.6330     0.5020     1.2080 ns         1 LCJ      -0.371400
     23 O03         -5.1770     1.8350     1.2580 os         1 LCJ      -0.216100
     24 O04         -3.0270     1.1530    -0.2670 o          1 LCJ      -0.589100
     25 O05         -5.8860     4.4370     0.0820 oh         1 LCJ      -0.641000
     26 H1          -3.7260    -4.2420     1.8920 ha         1 LCJ       0.135000
     27 H2          -4.5990    -1.9470     1.8420 ha         1 LCJ       0.120000
     28 H3           0.3280    -2.7840    -1.4200 h5         1 LCJ       0.082800
     29 H4          -1.5950    -5.8900     0.7770 h4         1 LCJ       0.233000
     30 H5           0.8180    -1.4210     1.0210 ha         1 LCJ       0.130000
     31 H6           2.7400     1.8320    -2.2330 ha         1 LCJ       0.149000
     32 H7           3.2190    -0.8120     1.1370 ha         1 LCJ       0.136000
     33 H8          -7.0410     1.2700     0.4930 h1         1 LCJ       0.048200
     34 H9          -5.8850     1.8660    -0.7190 h1         1 LCJ       0.048200
     35 H10         -7.7340     3.5020    -0.1660 h1         1 LCJ       0.025700
     36 H11         -7.1530     3.5720     1.5050 h1         1 LCJ       0.025700
     37 H12         -1.5440     0.2990    -1.0610 hn         1 LCJ       0.546000
     38 H13         -5.0130    -0.1760     1.8580 hn         1 LCJ       0.338500
     39 H14         -6.3170     5.3070     0.2330 ho         1 LCJ       0.443000
@<TRIPOS>BOND
     1     1     3 2   
     2     1    19 1   
     3     1    20 1   
     4     2     4 1   
     5     2     7 2   
     6     2    19 1   
     7     3     5 1   
     8     3     9 1   
     9     4     5 2   
    10     4    26 1   
    11     5    27 1   
    12     6    19 1   
    13     6    21 2   
    14     6    28 1   
    15     7    21 1   
    16     7    29 1   
    17     8    10 ar  
    18     8    11 ar  
    19     8    20 1   
    20     9    22 1   
    21     9    24 2   
    22    10    12 ar  
    23    10    17 1   
    24    11    13 ar  
    25    11    30 1   
    26    12    14 ar  
    27    12    31 1   
    28    13    14 ar  
    29    13    32 1   
    30    14    18 1   
    31    15    16 1   
    32    15    23 1   
    33    15    33 1   
    34    15    34 1   
    35    16    25 1   
    36    16    35 1   
    37    16    36 1   
    38    20    37 1   
    39    22    23 1   
    40    22    38 1   
    41    25    39 1   
@<TRIPOS>SUBSTRUCTURE
     1 LCJ         1 TEMP              0 ****  ****    0 ROOT
