@<TRIPOS>MOLECULE
LCJ
   39    41     1     0     0
SMALL
abcg2


@<TRIPOS>ATOM
      1 C10         -1.7910    -1.3550    -0.3020 cc         1 LCJ       0.367000
      2 C11         -1.9520    -3.6340     0.5420 cc         1 LCJ      -0.139000
      3 C12         -3.0050    -1.0690     0.2760 cd         1 LCJ      -0.259600
      4 C13         -3.2030    -3.3380     1.1280 cc         1 LCJ      -0.087000
      5 C14         -3.7200    -2.0970     0.9730 cd         1 LCJ      -0.086000
      6 C15         -0.1860    -3.2120    -0.7300 cc         1 LCJ       0.360700
      7 C16         -1.1610    -4.7500     0.4030 cd         1 LCJ      -0.072400
      8 C17          0.2970    -0.1910    -0.7550 ca         1 LCJ       0.244000
      9 C18         -3.5550     0.3040     0.1590 c          1 LCJ       0.629700
     10 C19          1.0680     0.4360    -1.7300 ca         1 LCJ       0.151000
     11 C20          0.9180    -0.5020     0.4510 ca         1 LCJ      -0.132000
     12 C21          2.3980     0.7460    -1.5450 ca         1 LCJ      -0.100000
     13 C22          2.2610    -0.2230     0.6590 ca         1 LCJ      -0.067000
     14 C23          2.9930     0.4000    -0.3390 ca         1 LCJ       0.197000
     15 C24         -6.2510     1.9530     0.5810 c3         1 LCJ       0.133600
     16 C25         -6.7750     3.3560     0.7380 c3         1 LCJ       0.163600
     17 F02          0.4820     0.7540    -2.8910 f          1 LCJ      -0.163000
     18 I01          5.0220     0.8370    -0.0320 i          1 LCJ      -0.290000
     19 N06         -1.3000    -2.6380    -0.1860 na         1 LCJ       0.017200
     20 N07         -1.0430    -0.4740    -1.0400 nu         1 LCJ      -0.967000
     21 N08         -0.0920    -4.4680    -0.3820 nd         1 LCJ      -0.544300
     22 N09         -4.4500     0.6310     1.1140 ns         1 LCJ      -0.371400
     23 O03         -4.9390     1.8980     1.1450 os         1 LCJ      -0.216100
     24 O04         -3.2550     1.0730    -0.7450 o          1 LCJ      -0.589100
     25 O05         -6.0110     4.2380    -0.0490 oh         1 LCJ      -0.641000
     26 H1          -3.7370    -4.1150     1.6550 ha         1 LCJ       0.135000
     27 H2          -4.7020    -1.8850     1.3730 ha         1 LCJ       0.120000
     28 H3           0.5010    -2.6890    -1.3730 h5         1 LCJ       0.082800
     29 H4          -1.3310    -5.7290     0.8230 h4         1 LCJ       0.233000
     30 H5           0.3530    -0.9620     1.2510 ha         1 LCJ       0.130000
     31 H6           2.9440     1.2360    -2.3400 ha         1 LCJ       0.149000
     32 H7           2.7120    -0.4870     1.6050 ha         1 LCJ       0.136000
     33 H8          -6.9200     1.2670     1.1090 h1         1 LCJ       0.048200
     34 H9          -6.2240     1.6630    -0.4740 h1         1 LCJ       0.048200
     35 H10         -7.8280     3.3350     0.4340 h1         1 LCJ       0.025700
     36 H11         -6.7590     3.6330     1.8000 h1         1 LCJ       0.025700
     37 H12         -1.5980     0.3070    -1.3780 hn         1 LCJ       0.546000
     38 H13         -4.4990     0.1490     2.0020 hn         1 LCJ       0.338500
     39 H14         -6.3620     5.1250     0.0720 ho         1 LCJ       0.443000
@<TRIPOS>BOND
     1     1     3 2   
     2     1    19 1   
     3     1    20 1   
     4     2     4 1   
     5     2     7 2   
     6     2    19 1   
     7     3     5 1   
     8     3     9 1   
     9     4     5 2   
    10     4    26 1   
    11     5    27 1   
    12     6    19 1   
    13     6    21 2   
    14     6    28 1   
    15     7    21 1   
    16     7    29 1   
    17     8    10 ar  
    18     8    11 ar  
    19     8    20 1   
    20     9    22 1   
    21     9    24 2   
    22    10    12 ar  
    23    10    17 1   
    24    11    13 ar  
    25    11    30 1   
    26    12    14 ar  
    27    12    31 1   
    28    13    14 ar  
    29    13    32 1   
    30    14    18 1   
    31    15    16 1   
    32    15    23 1   
    33    15    33 1   
    34    15    34 1   
    35    16    25 1   
    36    16    35 1   
    37    16    36 1   
    38    20    37 1   
    39    22    23 1   
    40    22    38 1   
    41    25    39 1   
@<TRIPOS>SUBSTRUCTURE
     1 LCJ         1 TEMP              0 ****  ****    0 ROOT
