@<TRIPOS>MOLECULE
LCK
   32    31     1     0     0
SMALL
bcc


@<TRIPOS>ATOM
      1 OXT         22.6660    42.2700    75.6060 o          1 LCK      -0.848800
      2 O2          28.8090    39.2690    83.3250 o          1 LCK      -0.835800
      3 C4          28.8700    40.4070    82.8280 c          1 LCK       0.938600
      4 O1          28.2210    41.4160    83.1550 o          1 LCK      -0.835800
      5 C3          29.8960    40.5730    81.6660 c3         1 LCK      -0.322700
      6 C2          29.8880    41.9460    81.0660 c2         1 LCK       0.467300
      7 C1          30.8540    42.9200    81.6700 c3         1 LCK      -0.125400
      8 NZ          29.1330    42.3410    80.1240 n2         1 LCK      -0.639900
      9 CE          28.1790    41.4130    79.5490 c3         1 LCK       0.115800
     10 CD          27.3540    42.0770    78.4570 c3         1 LCK      -0.067400
     11 CB          25.5180    41.7470    76.7240 c3         1 LCK      -0.098400
     12 CA          24.4720    40.8020    76.1080 c3         1 LCK       0.021500
     13 N           25.0240    39.6260    75.4510 n8         1 LCK      -0.885800
     14 C           23.6080    41.6150    75.1160 c          1 LCK       0.936600
     15 O           23.9550    41.5860    73.9180 o          1 LCK      -0.848800
     16 H3          30.8900    40.3460    82.0630 hc         1 LCK       0.030200
     17 H3A         29.6900    39.8060    80.9150 hc         1 LCK       0.030200
     18 H1          30.7670    43.9060    81.2160 hc         1 LCK       0.030700
     19 H1A         30.6730    43.0070    82.7430 hc         1 LCK       0.030700
     20 H1B         31.8810    42.5670    81.5520 hc         1 LCK       0.030700
     21 HE          28.6870    40.5370    79.1240 h1         1 LCK       0.040200
     22 HEA         27.5030    41.0210    80.3190 h1         1 LCK       0.040200
     23 HD          26.8170    42.9340    78.8760 hc         1 LCK       0.034700
     24 HDA         28.0240    42.4780    77.6890 hc         1 LCK       0.034700
     25 HG          26.9220    40.2560    77.4200 hc         1 LCK       0.025200
     26 HGA         25.7030    40.7030    78.5940 hc         1 LCK       0.025200
     27 HB          25.0000    42.6170    77.1400 hc         1 LCK       0.038200
     28 HBA         26.1720    42.1260    75.9290 hc         1 LCK       0.038200
     29 HA          23.8230    40.4610    76.9240 h1         1 LCK       0.044700
     30 HN          25.4740    39.9260    74.5950 hn         1 LCK       0.319800
     31 HNA         25.7420    39.2040    76.0260 hn         1 LCK       0.319800
     32 CG          26.3640    41.1100    77.8200 c3         1 LCK      -0.081400
@<TRIPOS>BOND
     1     1    14 1   
     2     2     3 1   
     3     3     4 1   
     4     3     5 1   
     5     5     6 1   
     6     5    16 1   
     7     5    17 1   
     8     6     7 1   
     9     6     8 2   
    10     7    18 1   
    11     7    19 1   
    12     7    20 1   
    13     8     9 1   
    14     9    10 1   
    15     9    21 1   
    16     9    22 1   
    17    10    23 1   
    18    10    24 1   
    19    10    32 1   
    20    11    12 1   
    21    11    27 1   
    22    11    28 1   
    23    11    32 1   
    24    12    13 1   
    25    12    14 1   
    26    12    29 1   
    27    13    30 1   
    28    13    31 1   
    29    14    15 1   
    30    25    32 1   
    31    26    32 1   
@<TRIPOS>SUBSTRUCTURE
     1 LCK         1 TEMP              0 ****  ****    0 ROOT
