@<TRIPOS>MOLECULE
LCK
   32    31     1     0     0
SMALL
No Charge or Current Charge


@<TRIPOS>ATOM
      1 OXT         22.1450    41.5300    75.9700 o          1 LCK      -0.743500
      2 O2          27.4310    40.7920    82.6240 o          1 LCK      -0.730500
      3 C4          28.5720    41.0410    82.9740 c          1 LCK       0.728000
      4 O1          28.8510    41.6550    83.9900 o          1 LCK      -0.730500
      5 C3          29.7070    40.6680    82.0360 c3         1 LCK      -0.322700
      6 C2          29.9490    41.8360    81.1000 c2         1 LCK       0.467300
      7 C1          30.9080    42.8820    81.6410 c3         1 LCK      -0.125400
      8 NZ          29.4590    41.9650    79.9090 n2         1 LCK      -0.639900
      9 CE          28.5260    41.0280    79.2590 c3         1 LCK       0.115800
     10 CD          27.5180    41.8070    78.3880 c3         1 LCK      -0.067400
     11 CB          25.5110    41.6650    76.7720 c3         1 LCK      -0.098400
     12 CA          24.4480    40.7800    76.0660 c3         1 LCK       0.021500
     13 N           25.1170    39.8410    75.0950 n8         1 LCK      -0.996200
     14 C           23.2630    41.6700    75.4910 c          1 LCK       0.726000
     15 O           23.4930    42.4110    74.5420 o          1 LCK      -0.743500
     16 H3          30.6310    40.5150    82.6060 hc         1 LCK       0.030200
     17 H3A         29.4430    39.7860    81.4420 hc         1 LCK       0.030200
     18 H1          31.0600    43.6990    80.9250 hc         1 LCK       0.030700
     19 H1A         30.5300    43.3280    82.5680 hc         1 LCK       0.030700
     20 H1B         31.8900    42.4450    81.8520 hc         1 LCK       0.030700
     21 HE          29.0800    40.3340    78.6130 h1         1 LCK       0.040200
     22 HEA         27.9640    40.4280    79.9850 h1         1 LCK       0.040200
     23 HD          26.9600    42.5070    79.0220 hc         1 LCK       0.034700
     24 HDA         28.0660    42.4070    77.6500 hc         1 LCK       0.034700
     25 HG          27.0880    40.1820    77.0270 hc         1 LCK       0.025200
     26 HGA         25.9720    40.2890    78.3880 hc         1 LCK       0.025200
     27 HB          24.9860    42.3860    77.4110 hc         1 LCK       0.038200
     28 HBA         26.0540    42.2550    76.0220 hc         1 LCK       0.038200
     29 HA          23.9950    40.1510    76.8460 h1         1 LCK       0.044700
     30 HN          25.4830    40.3920    74.3090 hn         1 LCK       0.375000
     31 HNA         25.9570    39.4520    75.5360 hn         1 LCK       0.375000
     32 CG          26.5220    40.8850    77.6500 c3         1 LCK      -0.081400
@<TRIPOS>BOND
     1     1    14 1   
     2     2     3 1   
     3     3     4 1   
     4     3     5 1   
     5     5     6 1   
     6     5    16 1   
     7     5    17 1   
     8     6     7 1   
     9     6     8 2   
    10     7    18 1   
    11     7    19 1   
    12     7    20 1   
    13     8     9 1   
    14     9    10 1   
    15     9    21 1   
    16     9    22 1   
    17    10    23 1   
    18    10    24 1   
    19    10    32 1   
    20    11    12 1   
    21    11    27 1   
    22    11    28 1   
    23    11    32 1   
    24    12    13 1   
    25    12    14 1   
    26    12    29 1   
    27    13    30 1   
    28    13    31 1   
    29    14    15 1   
    30    25    32 1   
    31    26    32 1   
@<TRIPOS>SUBSTRUCTURE
     1 LCK         1 TEMP              0 ****  ****    0 ROOT
