@<TRIPOS>MOLECULE
LCL
   32    32     1     0     0
SMALL
abcg2


@<TRIPOS>ATOM
      1 C1          -1.8670    -1.5010     0.2340 c3         1 LCL       0.206300
      2 CL1         -3.0010    -2.3570    -0.8240 cl         1 LCL      -0.192500
      3 CL2         -0.5990    -2.6020     0.7960 cl         1 LCL      -0.192500
      4 C2          -1.2100    -0.3740    -0.5640 c          1 LCL       0.601100
      5 O2          -0.5710    -0.6090    -1.5670 o          1 LCL      -0.544100
      6 N2          -1.4220     0.8370    -0.0340 ns         1 LCL      -0.506900
      7 C3          -0.9100     2.0630    -0.6100 c3         1 LCL       0.064700
      8 C4          -2.0110     3.1200    -0.6070 c3         1 LCL       0.151600
      9 O4          -2.5810     3.2240     0.6790 oh         1 LCL      -0.671000
     10 C5           0.3910     2.5290     0.0790 c3         1 LCL       0.211600
     11 O5           0.2030     3.0320     1.3730 oh         1 LCL      -0.638000
     12 C6           1.4140     1.4170     0.0350 ca         1 LCL      -0.068300
     13 C7           2.1880     1.2410    -1.1090 ca         1 LCL      -0.107000
     14 C8           3.0870     0.1970    -1.2090 ca         1 LCL      -0.038500
     15 C9           3.2020    -0.6850    -0.1440 ca         1 LCL      -0.170200
     16 N9           4.1360    -1.7940    -0.2370 no         1 LCL       0.694200
     17 O9A          4.7940    -1.9020    -1.2460 o          1 LCL      -0.400000
     18 O9B          4.2090    -2.5590     0.6970 o          1 LCL      -0.400000
     19 C10          2.4500    -0.5290     1.0100 ca         1 LCL      -0.038500
     20 C11          1.5630     0.5300     1.0940 ca         1 LCL      -0.107000
     21 H1          -2.4190    -1.1590     1.1060 h2         1 LCL       0.094700
     22 H2          -2.0540     0.9270     0.7490 hn         1 LCL       0.328500
     23 H3          -0.6580     1.8680    -1.6540 h1         1 LCL       0.091700
     24 H4          -1.5850     4.0740    -0.9380 h1         1 LCL       0.044200
     25 H5          -2.7600     2.8260    -1.3480 h1         1 LCL       0.044200
     26 H6          -3.5230     3.3880     0.5880 ho         1 LCL       0.456000
     27 H7           0.7690     3.3620    -0.5240 h1         1 LCL       0.082700
     28 H8          -0.4710     2.5280     1.8390 ho         1 LCL       0.454000
     29 H9           2.0910     1.9310    -1.9380 ha         1 LCL       0.123000
     30 H10          3.6830     0.0810    -2.1030 ha         1 LCL       0.151500
     31 H13          2.5450    -1.2160     1.8380 ha         1 LCL       0.151500
     32 H14          0.9900     0.6480     2.0040 ha         1 LCL       0.123000
@<TRIPOS>BOND
     1     1     2 1   
     2     1     3 1   
     3     1     4 1   
     4     1    21 1   
     5     4     5 2   
     6     4     6 1   
     7     6     7 1   
     8     6    22 1   
     9     7     8 1   
    10     7    10 1   
    11     7    23 1   
    12     8     9 1   
    13     8    24 1   
    14     8    25 1   
    15     9    26 1   
    16    10    11 1   
    17    10    12 1   
    18    10    27 1   
    19    11    28 1   
    20    12    13 ar  
    21    12    20 ar  
    22    13    14 ar  
    23    13    29 1   
    24    14    15 ar  
    25    14    30 1   
    26    15    16 1   
    27    15    19 ar  
    28    16    17 1   
    29    16    18 1   
    30    19    20 ar  
    31    19    31 1   
    32    20    32 1   
@<TRIPOS>SUBSTRUCTURE
     1 LCL         1 TEMP              0 ****  ****    0 ROOT
