@<TRIPOS>MOLECULE
LCL
   32    32     1     0     0
SMALL
No Charge or Current Charge


@<TRIPOS>ATOM
      1 C1          -2.0440    -1.6260     0.2870 c3         1 LCL       0.206300
      2 Cl1         -2.9830    -2.8070    -0.7380 cl         1 LCL      -0.192500
      3 Cl2         -0.7860    -2.5400     1.2380 cl         1 LCL      -0.192500
      4 C2          -1.4160    -0.4830    -0.5470 c          1 LCL       0.601100
      5 O2          -0.8260    -0.6750    -1.6040 o          1 LCL      -0.544100
      6 N2          -1.5560     0.7880    -0.0140 ns         1 LCL      -0.506900
      7 C3          -0.9850     2.0210    -0.5960 c3         1 LCL       0.064700
      8 C4          -2.0400     3.1600    -0.6050 c3         1 LCL       0.151600
      9 O4          -2.4630     3.4720     0.7370 oh         1 LCL      -0.671000
     10 C5           0.3520     2.4380     0.0940 c3         1 LCL       0.211600
     11 O5           0.0920     2.8130     1.4550 oh         1 LCL      -0.638000
     12 C6           1.4230     1.3430     0.0190 ca         1 LCL      -0.068300
     13 C7           2.3150     1.3150    -1.0710 ca         1 LCL      -0.107000
     14 C8           3.2910     0.3090    -1.1760 ca         1 LCL      -0.038500
     15 C9           3.3920    -0.6960    -0.1870 ca         1 LCL      -0.170200
     16 N9           4.4280    -1.7730    -0.2980 no         1 LCL       0.694200
     17 O9A          5.1910    -1.7540    -1.2740 o          1 LCL      -0.400000
     18 O9B          4.4760    -2.6340     0.5910 o          1 LCL      -0.400000
     19 C10          2.4980    -0.6700     0.9070 ca         1 LCL      -0.038500
     20 C11          1.5260     0.3400     1.0070 ca         1 LCL      -0.107000
     21 H1          -2.7500    -1.2080     1.0110 h2         1 LCL       0.094700
     22 H2          -2.0630     0.8730     0.8600 hn         1 LCL       0.328500
     23 H3          -0.7430     1.8210    -1.6490 h1         1 LCL       0.091700
     24 H4          -1.6100     4.0480    -1.0890 h1         1 LCL       0.044200
     25 H5          -2.8990     2.8390    -1.2090 h1         1 LCL       0.044200
     26 H6          -3.2380     4.0760     0.6620 ho         1 LCL       0.456000
     27 H7           0.7340     3.3150    -0.4490 h1         1 LCL       0.082700
     28 H8          -0.8460     3.1360     1.4440 ho         1 LCL       0.454000
     29 H9           2.2500     2.0750    -1.8470 ha         1 LCL       0.123000
     30 H10          3.9630     0.3170    -2.0340 ha         1 LCL       0.151500
     31 H13          2.5450    -1.4300     1.6860 ha         1 LCL       0.151500
     32 H14          0.8450     0.3350     1.8540 ha         1 LCL       0.123000
@<TRIPOS>BOND
     1     1     2 1   
     2     1     3 1   
     3     1     4 1   
     4     1    21 1   
     5     4     5 2   
     6     4     6 1   
     7     6     7 1   
     8     6    22 1   
     9     7     8 1   
    10     7    10 1   
    11     7    23 1   
    12     8     9 1   
    13     8    24 1   
    14     8    25 1   
    15     9    26 1   
    16    10    11 1   
    17    10    12 1   
    18    10    27 1   
    19    11    28 1   
    20    12    13 ar  
    21    12    20 ar  
    22    13    14 ar  
    23    13    29 1   
    24    14    15 ar  
    25    14    30 1   
    26    15    16 1   
    27    15    19 ar  
    28    16    17 1   
    29    16    18 1   
    30    19    20 ar  
    31    19    31 1   
    32    20    32 1   
@<TRIPOS>SUBSTRUCTURE
     1 LCL         1 TEMP              0 ****  ****    0 ROOT
