@<TRIPOS>MOLECULE
LCM
   46    47     1     0     0
SMALL
abcg2


@<TRIPOS>ATOM
      1 C1          -7.7760     1.5580     0.0480 ca         1 LCM      -0.118000
      2 C2          -7.7200     0.3360    -0.6000 ca         1 LCM       0.065100
      3 C3          -6.5550    -0.4440    -0.5390 ca         1 LCM       0.153100
      4 C4          -5.4540     0.0290     0.1690 ca         1 LCM      -0.200600
      5 C5          -5.5180     1.2690     0.8080 ca         1 LCM      -0.084000
      6 C6          -6.6740     2.0260     0.7540 ca         1 LCM      -0.123000
      7 C7          -4.2230    -0.8120     0.2870 c          1 LCM       0.625200
      8 N8          -3.0800    -0.1740    -0.0060 ns         1 LCM      -0.492900
      9 O9          -4.2630    -1.9780     0.6530 o          1 LCM      -0.617600
     10 C10         -1.7810    -0.8070     0.0800 c3         1 LCM       0.101500
     11 C11         -0.6730     0.2330     0.0750 c3         1 LCM      -0.092900
     12 C12          0.7010    -0.4170     0.1570 c3         1 LCM      -0.092900
     13 C13          1.8100     0.6210     0.1220 c3         1 LCM       0.101500
     14 N14          3.1070    -0.0170     0.2360 ns         1 LCM      -0.492900
     15 C15          4.2420     0.5590    -0.1560 c          1 LCM       0.625200
     16 C16          5.5200    -0.1720     0.0330 ca         1 LCM      -0.200600
     17 O17          4.2390     1.6880    -0.6790 o          1 LCM      -0.617600
     18 C18          6.6950     0.4670    -0.3860 ca         1 LCM       0.153100
     19 C19          7.9380    -0.1720    -0.2250 ca         1 LCM       0.065100
     20 C20          7.9970    -1.4260     0.3460 ca         1 LCM      -0.118000
     21 C21          6.8290    -2.0650     0.7610 ca         1 LCM      -0.123000
     22 C22          5.6070    -1.4490     0.6060 ca         1 LCM      -0.084000
     23 O23          6.7210     1.6790    -0.9480 oh         1 LCM      -0.546600
     24 O24          9.0730     0.4350    -0.6260 oh         1 LCM      -0.545100
     25 O25         -6.4790    -1.6240    -1.1790 oh         1 LCM      -0.546600
     26 O26         -8.7380    -0.1910    -1.3160 oh         1 LCM      -0.545100
     27 H1          -8.6840     2.1480     0.0020 ha         1 LCM       0.124000
     28 H5          -4.6640     1.6260     1.3680 ha         1 LCM       0.112500
     29 H6          -6.7270     2.9790     1.2620 ha         1 LCM       0.120000
     30 HN8         -3.1330     0.7410    -0.4260 hn         1 LCM       0.318000
     31 H10         -1.7340    -1.3960     0.9980 h1         1 LCM       0.055700
     32 H10A        -1.6400    -1.5050    -0.7520 h1         1 LCM       0.055700
     33 H11         -0.7400     0.8360    -0.8370 hc         1 LCM       0.048450
     34 H11A        -0.8120     0.9180     0.9160 hc         1 LCM       0.048450
     35 H12          0.7710    -1.0020     1.0800 hc         1 LCM       0.048450
     36 H12A         0.8330    -1.1170    -0.6720 hc         1 LCM       0.048450
     37 H13          1.7690     1.1770    -0.8160 h1         1 LCM       0.055700
     38 H13A         1.6730     1.3450     0.9310 h1         1 LCM       0.055700
     39 HN14         3.1380    -0.9000     0.7180 hn         1 LCM       0.318000
     40 H20          8.9590    -1.9090     0.4690 ha         1 LCM       0.124000
     41 H21          6.8880    -3.0490     1.2060 ha         1 LCM       0.120000
     42 H22          4.7220    -1.9770     0.9340 ha         1 LCM       0.112500
     43 HO23         5.7710     1.9780    -0.9900 ho         1 LCM       0.510000
     44 HO24         8.8700     1.2980    -1.0080 ho         1 LCM       0.481500
     45 HO25        -7.2820    -1.7770    -1.6930 ho         1 LCM       0.510000
     46 HO26        -9.4810     0.4220    -1.3610 ho         1 LCM       0.481500
@<TRIPOS>BOND
     1     1     2 ar  
     2     1     6 ar  
     3     1    27 1   
     4     2     3 ar  
     5     2    26 1   
     6     3     4 ar  
     7     3    25 1   
     8     4     5 ar  
     9     4     7 1   
    10     5     6 ar  
    11     5    28 1   
    12     6    29 1   
    13     7     8 1   
    14     7     9 2   
    15     8    10 1   
    16     8    30 1   
    17    10    11 1   
    18    10    31 1   
    19    10    32 1   
    20    11    12 1   
    21    11    33 1   
    22    11    34 1   
    23    12    13 1   
    24    12    35 1   
    25    12    36 1   
    26    13    14 1   
    27    13    37 1   
    28    13    38 1   
    29    14    15 1   
    30    14    39 1   
    31    15    16 1   
    32    15    17 2   
    33    16    18 ar  
    34    16    22 ar  
    35    18    19 ar  
    36    18    23 1   
    37    19    20 ar  
    38    19    24 1   
    39    20    21 ar  
    40    20    40 1   
    41    21    22 ar  
    42    21    41 1   
    43    22    42 1   
    44    23    43 1   
    45    24    44 1   
    46    25    45 1   
    47    26    46 1   
@<TRIPOS>SUBSTRUCTURE
     1 LCM         1 TEMP              0 ****  ****    0 ROOT
