@<TRIPOS>MOLECULE
LCM
   46    47     1     0     0
SMALL
No Charge or Current Charge


@<TRIPOS>ATOM
      1 C1          -7.8790     1.5990    -0.1010 ca         1 LCM      -0.118000
      2 C2          -7.9700     0.2200    -0.3410 ca         1 LCM       0.065100
      3 C3          -6.8180    -0.5940    -0.2640 ca         1 LCM       0.153100
      4 C4          -5.5530    -0.0360     0.0550 ca         1 LCM      -0.200600
      5 C5          -5.4870     1.3630     0.2920 ca         1 LCM      -0.084000
      6 C6          -6.6360     2.1670     0.2150 ca         1 LCM      -0.123000
      7 C7          -4.2970    -0.8850     0.1530 c          1 LCM       0.625200
      8 N8          -3.1070    -0.2020     0.0300 ns         1 LCM      -0.492900
      9 O9          -4.3010    -2.0890     0.3760 o          1 LCM      -0.617600
     10 C10         -1.7840    -0.8180     0.1280 c3         1 LCM       0.101500
     11 C11         -0.6600     0.2240    -0.0320 c3         1 LCM      -0.092900
     12 C12          0.7520    -0.3950     0.0680 c3         1 LCM      -0.092900
     13 C13          1.8750     0.6470    -0.0910 c3         1 LCM       0.101500
     14 N14          3.1990     0.0310     0.0090 ns         1 LCM      -0.492900
     15 C15          4.3840     0.7220    -0.0940 c          1 LCM       0.625200
     16 C16          5.6640    -0.0800     0.0340 ca         1 LCM      -0.200600
     17 O17          4.3950     1.9320    -0.2820 o          1 LCM      -0.617600
     18 C18          6.9250     0.5600    -0.0610 ca         1 LCM       0.153100
     19 C19          8.1210    -0.1820     0.0580 ca         1 LCM       0.065100
     20 C20          8.0760    -1.5660     0.2720 ca         1 LCM      -0.118000
     21 C21          6.8360    -2.2140     0.3680 ca         1 LCM      -0.123000
     22 C22          5.6410    -1.4830     0.2510 ca         1 LCM      -0.084000
     23 O23          7.0090     1.9110    -0.2700 oh         1 LCM      -0.546600
     24 O24          9.3290     0.4510    -0.0370 oh         1 LCM      -0.545100
     25 O25         -6.9780    -1.9210    -0.5410 oh         1 LCM      -0.546600
     26 O26         -9.1810    -0.3430    -0.6590 oh         1 LCM      -0.545100
     27 H1          -8.7610     2.2330    -0.1580 ha         1 LCM       0.124000
     28 H5          -4.5500     1.8440     0.5620 ha         1 LCM       0.112500
     29 H6          -6.5620     3.2350     0.4060 ha         1 LCM       0.120000
     30 HN8         -3.1680     0.7880    -0.1690 hn         1 LCM       0.318000
     31 H10         -1.6930    -1.3100     1.1050 h1         1 LCM       0.055700
     32 H10A        -1.6900    -1.5830    -0.6540 h1         1 LCM       0.055700
     33 H11         -0.7670     0.7230    -1.0030 hc         1 LCM       0.048450
     34 H11A        -0.7720     0.9950     0.7420 hc         1 LCM       0.048450
     35 H12          0.8590    -0.8940     1.0400 hc         1 LCM       0.048450
     36 H12A         0.8640    -1.1650    -0.7050 hc         1 LCM       0.048450
     37 H13          1.7860     1.1390    -1.0690 h1         1 LCM       0.055700
     38 H13A         1.7810     1.4130     0.6910 h1         1 LCM       0.055700
     39 HN14         3.2590    -0.9660     0.1630 hn         1 LCM       0.318000
     40 H20          8.9980    -2.1360     0.3630 ha         1 LCM       0.124000
     41 H21          6.7980    -3.2890     0.5350 ha         1 LCM       0.120000
     42 H22          4.7040    -2.0280     0.3330 ha         1 LCM       0.112500
     43 HO23         6.0720     2.2380    -0.3240 ho         1 LCM       0.510000
     44 HO24         9.1340     1.4050    -0.1850 ho         1 LCM       0.481500
     45 HO25        -7.9370    -2.0340    -0.7340 ho         1 LCM       0.510000
     46 HO26        -9.8680     0.3610    -0.6700 ho         1 LCM       0.481500
@<TRIPOS>BOND
     1     1     2 ar  
     2     1     6 ar  
     3     1    27 1   
     4     2     3 ar  
     5     2    26 1   
     6     3     4 ar  
     7     3    25 1   
     8     4     5 ar  
     9     4     7 1   
    10     5     6 ar  
    11     5    28 1   
    12     6    29 1   
    13     7     8 1   
    14     7     9 2   
    15     8    10 1   
    16     8    30 1   
    17    10    11 1   
    18    10    31 1   
    19    10    32 1   
    20    11    12 1   
    21    11    33 1   
    22    11    34 1   
    23    12    13 1   
    24    12    35 1   
    25    12    36 1   
    26    13    14 1   
    27    13    37 1   
    28    13    38 1   
    29    14    15 1   
    30    14    39 1   
    31    15    16 1   
    32    15    17 2   
    33    16    18 ar  
    34    16    22 ar  
    35    18    19 ar  
    36    18    23 1   
    37    19    20 ar  
    38    19    24 1   
    39    20    21 ar  
    40    20    40 1   
    41    21    22 ar  
    42    21    41 1   
    43    22    42 1   
    44    23    43 1   
    45    24    44 1   
    46    25    45 1   
    47    26    46 1   
@<TRIPOS>SUBSTRUCTURE
     1 LCM         1 TEMP              0 ****  ****    0 ROOT
