@<TRIPOS>MOLECULE
LCN
   21    21     1     0     0
SMALL
No Charge or Current Charge


@<TRIPOS>ATOM
      1 C1          -0.6300    -1.7030     0.0840 c2         1 LCN      -0.105900
      2 C2          -1.5890    -0.7840    -0.1220 c2         1 LCN      -0.053100
      3 O2          -2.9080    -1.0780    -0.1220 oh         1 LCN      -0.537100
      4 C3          -1.2630     0.6890    -0.3560 c6         1 LCN       0.197500
      5 O3          -2.2860     1.5030     0.2290 oh         1 LCN      -0.658000
      6 C4           0.1320     1.0230     0.2430 c6         1 LCN       0.140300
      7 O4           0.5220     2.3680    -0.1050 oh         1 LCN      -0.658000
      8 C5           1.1450    -0.0440    -0.2670 c6         1 LCN       0.166300
      9 O5           0.7120    -1.3880     0.0970 os         1 LCN      -0.317100
     10 C6           2.5900     0.1740     0.2850 c3         1 LCN       0.171600
     11 O6           3.5240    -0.8370    -0.1450 oh         1 LCN      -0.651000
     12 H1          -0.8360    -2.7600     0.2670 h4         1 LCN       0.214000
     13 H3          -1.2270     0.8570    -1.4430 h1         1 LCN       0.055700
     14 H4           0.0660     0.9270     1.3370 h1         1 LCN       0.063700
     15 H5           1.1850     0.0130    -1.3640 h1         1 LCN       0.065700
     16 H6           2.9380     1.1640    -0.0400 h1         1 LCN       0.038200
     17 H6A          2.5370     0.1940     1.3820 h1         1 LCN       0.038200
     18 HO2         -3.0160    -2.0450     0.0240 ho         1 LCN       0.460000
     19 HO3         -3.0500     0.8810     0.2870 ho         1 LCN       0.462000
     20 HO4         -0.2810     2.9200     0.0420 ho         1 LCN       0.463000
     21 HO6          4.3850    -0.6330     0.2830 ho         1 LCN       0.444000
@<TRIPOS>BOND
     1     1     2 2   
     2     1     9 1   
     3     1    12 1   
     4     2     3 1   
     5     2     4 1   
     6     3    18 1   
     7     4     5 1   
     8     4     6 1   
     9     4    13 1   
    10     5    19 1   
    11     6     7 1   
    12     6     8 1   
    13     6    14 1   
    14     7    20 1   
    15     8     9 1   
    16     8    10 1   
    17     8    15 1   
    18    10    11 1   
    19    10    16 1   
    20    10    17 1   
    21    11    21 1   
@<TRIPOS>SUBSTRUCTURE
     1 LCN         1 TEMP              0 ****  ****    0 ROOT
