@<TRIPOS>MOLECULE
LCN
   21    21     1     0     0
SMALL
bcc


@<TRIPOS>ATOM
      1 C1          -0.5540    -1.7050     0.2000 c2         1 LCN      -0.055900
      2 C2          -1.5280    -0.8490    -0.1010 c2         1 LCN      -0.053100
      3 O2          -2.8230    -1.1950    -0.3220 oh         1 LCN      -0.498100
      4 C3          -1.2760     0.6250    -0.2620 c6         1 LCN       0.174300
      5 O3          -2.2140     1.4060     0.4450 oh         1 LCN      -0.595800
      6 C4           0.1060     0.9720     0.2800 c6         1 LCN       0.117100
      7 O4           0.5390     2.2270    -0.1760 oh         1 LCN      -0.595800
      8 C5           1.1070    -0.0870    -0.1740 c6         1 LCN       0.143100
      9 O5           0.7470    -1.3430     0.3780 os         1 LCN      -0.293900
     10 C6           2.5200     0.2200     0.2730 c3         1 LCN       0.148400
     11 O6           3.3680    -0.8040    -0.1930 oh         1 LCN      -0.588800
     12 H1          -0.7170    -2.7700     0.3280 h4         1 LCN       0.164000
     13 H3          -1.2980     0.8760    -1.3330 h1         1 LCN       0.055700
     14 H4           0.0590     0.9420     1.3800 h1         1 LCN       0.063700
     15 H5           1.0770    -0.1590    -1.2730 h1         1 LCN       0.065700
     16 H6           2.8060     1.1950    -0.1310 h1         1 LCN       0.038200
     17 H6A          2.5410     0.3010     1.3690 h1         1 LCN       0.038200
     18 HO2         -2.9430    -2.1440    -0.2040 ho         1 LCN       0.421000
     19 HO3         -3.0440     1.4100    -0.0420 ho         1 LCN       0.423000
     20 HO4         -0.0940     2.8890     0.1220 ho         1 LCN       0.424000
     21 HO6          4.2710    -0.5640     0.0320 ho         1 LCN       0.405000
@<TRIPOS>BOND
     1     1     2 2   
     2     1     9 1   
     3     1    12 1   
     4     2     3 1   
     5     2     4 1   
     6     3    18 1   
     7     4     5 1   
     8     4     6 1   
     9     4    13 1   
    10     5    19 1   
    11     6     7 1   
    12     6     8 1   
    13     6    14 1   
    14     7    20 1   
    15     8     9 1   
    16     8    10 1   
    17     8    15 1   
    18    10    11 1   
    19    10    16 1   
    20    10    17 1   
    21    11    21 1   
@<TRIPOS>SUBSTRUCTURE
     1 LCN         1 TEMP              0 ****  ****    0 ROOT
