@<TRIPOS>MOLECULE
LCO
    4     3     1     0     0
SMALL
No Charge or Current Charge


@<TRIPOS>ATOM
      1 Cl           0.0080    -0.1550    -1.4410 cl         1 LCO       1.536000
      2 O1           0.0390     0.1760     0.4900 o          1 LCO      -0.845333
      3 O2           0.0390     0.1760     0.4900 o          1 LCO      -0.845333
      4 O3           0.0390     0.1760     0.4900 o          1 LCO      -0.845333
@<TRIPOS>BOND
     1     1     2 1   
     2     1     3 1   
     3     1     4 1   
@<TRIPOS>SUBSTRUCTURE
     1 LCO         1 TEMP              0 ****  ****    0 ROOT
