@<TRIPOS>MOLECULE
LCO
    4     3     1     0     0
SMALL
abcg2


@<TRIPOS>ATOM
      1 CL           0.0250     0.0250    -0.3980 cl         1 LCO       1.536000
      2 O1          -1.1920    -0.5450     0.2750 o          1 LCO      -0.845333
      3 O2           0.0650     1.4960    -0.0950 o          1 LCO      -0.845333
      4 O3           1.2280    -0.6030     0.2460 o          1 LCO      -0.845333
@<TRIPOS>BOND
     1     1     2 1   
     2     1     3 1   
     3     1     4 1   
@<TRIPOS>SUBSTRUCTURE
     1 LCO         1 TEMP              0 ****  ****    0 ROOT
