@<TRIPOS>MOLECULE
LCP
    5     4     1     0     0
SMALL
abcg2


@<TRIPOS>ATOM
      1 CL          -0.0020    -0.0280    -0.0220 cl         1 LCP       1.888000
      2 O1           0.0570    -1.2540    -0.8240 o          1 LCP      -0.722000
      3 O2          -0.0270     1.1370    -0.9120 o          1 LCP      -0.722000
      4 O3          -1.2140    -0.0390     0.8030 o          1 LCP      -0.722000
      5 O4           1.1780     0.0450     0.8460 o          1 LCP      -0.722000
@<TRIPOS>BOND
     1     1     2 1   
     2     1     3 1   
     3     1     4 1   
     4     1     5 1   
@<TRIPOS>SUBSTRUCTURE
     1 LCP         1 TEMP              0 ****  ****    0 ROOT
