@<TRIPOS>MOLECULE
LCP
    5     4     1     0     0
SMALL
No Charge or Current Charge


@<TRIPOS>ATOM
      1 Cl           0.0000     0.0000     0.0000 cl         1 LCP       1.888000
      2 O1           0.0000     0.0000     0.0000 o          1 LCP      -0.722000
      3 O2           0.0000     0.0000     0.0000 o          1 LCP      -0.722000
      4 O3           0.0000     0.0000     0.0000 o          1 LCP      -0.722000
      5 O4           0.0000     0.0000     0.0000 o          1 LCP      -0.722000
@<TRIPOS>BOND
     1     1     2 1   
     2     1     3 1   
     3     1     4 1   
     4     1     5 1   
@<TRIPOS>SUBSTRUCTURE
     1 LCP         1 TEMP              0 ****  ****    0 ROOT
