@<TRIPOS>MOLECULE
LCQ
   26    28     1     0     0
SMALL
bcc


@<TRIPOS>ATOM
      1 C12         26.6690    -9.0210    21.4350 ca         1 LCQ      -0.167000
      2 C14         24.2790    -5.3330    18.5090 ca         1 LCQ       0.480800
      3 C16         23.5350    -4.6400    16.5750 cc         1 LCQ       0.422700
      4 C18         24.4910    -6.2770    17.4820 ca         1 LCQ      -0.184200
      5 C03         25.1160    -7.4340    17.8950 ca         1 LCQ       0.642300
      6 C05         25.2190    -6.6440    20.0350 ca         1 LCQ       0.936900
      7 C07         26.2100    -7.8360    22.0150 ca         1 LCQ       0.172600
      8 C08         26.3900    -7.6480    23.3920 ca         1 LCQ      -0.167000
      9 C09         27.0100    -8.6120    24.1650 ca         1 LCQ      -0.100000
     10 C10         27.4660    -9.7920    23.5880 ca         1 LCQ      -0.153000
     11 C11         27.2890    -9.9800    22.2270 ca         1 LCQ      -0.100000
     12 N01         25.6270    -9.3400    16.2230 n1         1 LCQ      -0.320800
     13 N04         25.4770    -7.6160    19.1590 nb         1 LCQ      -0.745000
     14 N06         25.5760    -6.7990    21.3370 nu         1 LCQ      -0.727300
     15 N13         24.6190    -5.4750    19.7650 nb         1 LCQ      -0.775000
     16 N15         23.6640    -4.2960    17.8900 na         1 LCQ      -0.375000
     17 N17         24.0150    -5.8130    16.2860 nd         1 LCQ      -0.524100
     18 H121        26.5460    -9.2000    20.3800 ha         1 LCQ       0.147500
     19 H161        23.0730    -3.9670    15.8690 h5         1 LCQ       0.072800
     20 H081        26.0380    -6.7350    23.8570 ha         1 LCQ       0.147500
     21 H091        27.1350    -8.4380    25.2260 ha         1 LCQ       0.132500
     22 H101        27.9510   -10.5490    24.1910 ha         1 LCQ       0.135000
     23 H111        27.6400   -10.8900    21.7580 ha         1 LCQ       0.132500
     24 H061        25.3240    -6.0070    21.9090 hn         1 LCQ       0.456800
     25 H1          23.3520    -3.4340    18.3130 hn         1 LCQ       0.324700
     26 C02         25.4020    -8.4960    16.9720 cg         1 LCQ       0.134800
@<TRIPOS>BOND
     1     1     7 ar  
     2     1    11 ar  
     3     1    18 1   
     4     2     4 ar  
     5     2    15 ar  
     6     2    16 1   
     7     3    16 1   
     8     3    17 2   
     9     3    19 1   
    10     4     5 ar  
    11     4    17 1   
    12     5    13 ar  
    13     5    26 1   
    14     6    13 ar  
    15     6    14 1   
    16     6    15 ar  
    17     7     8 ar  
    18     7    14 1   
    19     8     9 ar  
    20     8    20 1   
    21     9    10 ar  
    22     9    21 1   
    23    10    11 ar  
    24    10    22 1   
    25    11    23 1   
    26    12    26 3   
    27    14    24 1   
    28    16    25 1   
@<TRIPOS>SUBSTRUCTURE
     1 LCQ         1 TEMP              0 ****  ****    0 ROOT
