@<TRIPOS>MOLECULE
LCQ
   26    28     1     0     0
SMALL
No Charge or Current Charge


@<TRIPOS>ATOM
      1 C12         27.1240    -8.7690    21.4500 ca         1 LCQ      -0.149000
      2 C14         24.3820    -5.2480    18.4340 ca         1 LCQ       0.152500
      3 C16         23.5720    -4.5650    16.4680 cc         1 LCQ       0.422700
      4 C18         24.3570    -6.2750    17.5260 ca         1 LCQ      -0.053600
      5 C03         24.8180    -7.5440    17.9420 ca         1 LCQ       0.314000
      6 C05         25.2580    -6.6360    20.0110 ca         1 LCQ       0.410900
      7 C07         26.2950    -7.8030    22.0550 ca         1 LCQ       0.311000
      8 C08         26.1060    -7.8410    23.4480 ca         1 LCQ      -0.149000
      9 C09         26.7120    -8.8440    24.2260 ca         1 LCQ      -0.082000
     10 C10         27.5230    -9.8120    23.6120 ca         1 LCQ      -0.135000
     11 C11         27.7320    -9.7730    22.2240 ca         1 LCQ      -0.082000
     12 N01         24.8400    -9.6220    16.3630 n1         1 LCQ      -0.410000
     13 N04         25.2680    -7.7200    19.2050 nb         1 LCQ      -0.219000
     14 N06         25.6810    -6.7780    21.3260 nu         1 LCQ      -0.920900
     15 N13         24.8250    -5.3990    19.6930 nb         1 LCQ      -0.249000
     16 N15         23.8860    -4.1730    17.7660 na         1 LCQ      -0.425300
     17 N17         23.8530    -5.8690    16.2860 nd         1 LCQ      -0.524100
     18 H121        27.3190    -8.7400    20.3830 ha         1 LCQ       0.129500
     19 H161        23.1580    -3.8840    15.7330 h5         1 LCQ       0.072800
     20 H081        25.4790    -7.0980    23.9320 ha         1 LCQ       0.129500
     21 H091        26.5530    -8.8700    25.3020 ha         1 LCQ       0.114500
     22 H101        27.9940   -10.5880    24.2120 ha         1 LCQ       0.117000
     23 H111        28.3700   -10.5150    21.7490 ha         1 LCQ       0.114500
     24 H061        25.4160    -5.9760    21.8970 hn         1 LCQ       0.512000
     25 H1          23.7640    -3.2420    18.1420 hn         1 LCQ       0.375000
     26 C02         24.8270    -8.6870    17.0650 cg         1 LCQ       0.224000
@<TRIPOS>BOND
     1     1     7 ar  
     2     1    11 ar  
     3     1    18 1   
     4     2     4 ar  
     5     2    15 ar  
     6     2    16 1   
     7     3    16 1   
     8     3    17 2   
     9     3    19 1   
    10     4     5 ar  
    11     4    17 1   
    12     5    13 ar  
    13     5    26 1   
    14     6    13 ar  
    15     6    14 1   
    16     6    15 ar  
    17     7     8 ar  
    18     7    14 1   
    19     8     9 ar  
    20     8    20 1   
    21     9    10 ar  
    22     9    21 1   
    23    10    11 ar  
    24    10    22 1   
    25    11    23 1   
    26    12    26 3   
    27    14    24 1   
    28    16    25 1   
@<TRIPOS>SUBSTRUCTURE
     1 LCQ         1 TEMP              0 ****  ****    0 ROOT
