@<TRIPOS>MOLECULE
LCR
   51    53     1     0     0
SMALL
No Charge or Current Charge


@<TRIPOS>ATOM
      1 OAC         -6.6610     0.3930    -1.9440 o          1 LCR      -0.723500
      2 CBA         -6.9630     1.3030    -1.1800 c          1 LCR       0.726000
      3 OAD         -7.7800     2.1680    -1.4710 o          1 LCR      -0.723500
      4 CAZ         -6.2950     1.3860     0.2350 c3         1 LCR       0.006600
      5 OAB         -5.3250     0.3410     0.4950 os         1 LCR      -0.403000
      6 CAO         -4.7240     0.3990     1.8050 c3         1 LCR       0.162600
      7 CAL         -3.6970    -0.7610     1.9630 c3         1 LCR       0.175800
      8 NAF         -2.5260    -0.7500     1.0400 n3         1 LCR      -0.686600
      9 CAJ         -1.6860    -1.9770     1.1780 c6         1 LCR       0.170800
     10 CAH         -0.4790    -1.9910     0.1890 c6         1 LCR       0.159300
     11 CAI         -1.6650     0.4660     1.1720 c6         1 LCR       0.170800
     12 CAG         -0.4550     0.4510     0.1850 c6         1 LCR       0.159300
     13 NAE          0.3910    -0.7780     0.3270 n3         1 LCR      -0.727600
     14 CAK          1.5640    -0.7910    -0.5940 c3         1 LCR       0.277100
     15 CAM          2.4580     0.4480    -0.4600 ca         1 LCR      -0.068300
     16 CAP          2.8910     1.1310    -1.6160 ca         1 LCR      -0.088000
     17 CAT          3.7180     2.2640    -1.5060 ca         1 LCR      -0.110000
     18 CAX          4.1170     2.7210    -0.2410 ca         1 LCR       0.118000
     19 ClAA         5.1500     4.1380    -0.1040 cl         1 LCR      -0.222000
     20 CAU          3.6940     2.0480     0.9160 ca         1 LCR      -0.110000
     21 CAQ          2.8680     0.9150     0.8070 ca         1 LCR      -0.088000
     22 CAN          2.4280    -2.0520    -0.4690 ca         1 LCR      -0.075300
     23 CAR          2.8350    -2.7440    -1.6280 ca         1 LCR      -0.094500
     24 CAV          3.6340    -3.8960    -1.5270 ca         1 LCR      -0.116500
     25 CAY          4.0360    -4.3660    -0.2660 ca         1 LCR      -0.113000
     26 CAW          3.6390    -3.6830     0.8940 ca         1 LCR      -0.116500
     27 CAS          2.8400    -2.5300     0.7940 ca         1 LCR      -0.094500
     28 H2          -5.8130     2.3700     0.3200 h1         1 LCR      -0.004800
     29 H3          -7.0970     1.3440     0.9840 h1         1 LCR      -0.004800
     30 H4          -4.2290     1.3650     1.9630 h1         1 LCR      -0.002800
     31 H5          -5.4970     0.2910     2.5770 h1         1 LCR      -0.002800
     32 H6          -3.3370    -0.7460     3.0000 h1         1 LCR       0.024200
     33 H7          -4.2460    -1.7040     1.8380 h1         1 LCR       0.024200
     34 H9          -1.2970    -2.0530     2.2050 h1         1 LCR       0.031700
     35 H10         -2.2960    -2.8740     0.9990 h1         1 LCR       0.031700
     36 H11          0.0970    -2.9090     0.3730 h1         1 LCR       0.044700
     37 H12         -0.8700    -2.0600    -0.8370 h1         1 LCR       0.044700
     38 H13         -2.2500     1.3760     0.9770 h1         1 LCR       0.031700
     39 H14         -1.2790     0.5450     2.1990 h1         1 LCR       0.031700
     40 H15         -0.8430     0.5250    -0.8420 h1         1 LCR       0.044700
     41 H16          0.1390     1.3590     0.3670 h1         1 LCR       0.044700
     42 H18          1.1660    -0.7830    -1.6180 h1         1 LCR       0.037700
     43 H19          2.5890     0.7830    -2.6020 ha         1 LCR       0.125500
     44 H20          4.0480     2.7860    -2.4010 ha         1 LCR       0.124000
     45 H21          4.0040     2.4040     1.8950 ha         1 LCR       0.124000
     46 H22          2.5400     0.4030     1.7090 ha         1 LCR       0.125500
     47 H23          2.5320    -2.3880    -2.6110 ha         1 LCR       0.118500
     48 H24          3.9420    -4.4240    -2.4270 ha         1 LCR       0.107500
     49 H25          4.6550    -5.2580    -0.1890 ha         1 LCR       0.106000
     50 H26          3.9480    -4.0450     1.8720 ha         1 LCR       0.107500
     51 H27          2.5330    -2.0120     1.6990 ha         1 LCR       0.118500
@<TRIPOS>BOND
     1     1     2 1   
     2     2     3 1   
     3     2     4 1   
     4     4     5 1   
     5     4    28 1   
     6     4    29 1   
     7     5     6 1   
     8     6     7 1   
     9     6    30 1   
    10     6    31 1   
    11     7     8 1   
    12     7    32 1   
    13     7    33 1   
    14     8     9 1   
    15     8    11 1   
    16     9    10 1   
    17     9    34 1   
    18     9    35 1   
    19    10    13 1   
    20    10    36 1   
    21    10    37 1   
    22    11    12 1   
    23    11    38 1   
    24    11    39 1   
    25    12    13 1   
    26    12    40 1   
    27    12    41 1   
    28    13    14 1   
    29    14    15 1   
    30    14    22 1   
    31    14    42 1   
    32    15    16 ar  
    33    15    21 ar  
    34    16    17 ar  
    35    16    43 1   
    36    17    18 ar  
    37    17    44 1   
    38    18    19 1   
    39    18    20 ar  
    40    20    21 ar  
    41    20    45 1   
    42    21    46 1   
    43    22    23 ar  
    44    22    27 ar  
    45    23    24 ar  
    46    23    47 1   
    47    24    25 ar  
    48    24    48 1   
    49    25    26 ar  
    50    25    49 1   
    51    26    27 ar  
    52    26    50 1   
    53    27    51 1   
@<TRIPOS>SUBSTRUCTURE
     1 LCR         1 TEMP              0 ****  ****    0 ROOT
