@<TRIPOS>MOLECULE
LCR
   51    53     1     0     0
SMALL
bcc


@<TRIPOS>ATOM
      1 OAC         -6.3660    -0.2590    -1.8040 o          1 LCR      -0.828800
      2 CBA         -6.8160     0.7170    -1.1830 c          1 LCR       0.936600
      3 OAD         -7.7390     1.4820    -1.5320 o          1 LCR      -0.828800
      4 CAZ         -6.1920     1.0600     0.1790 c3         1 LCR      -0.016600
      5 OAB         -5.1690     0.1650     0.5250 os         1 LCR      -0.356600
      6 CAO         -4.5770     0.4730     1.7580 c3         1 LCR       0.139400
      7 CAL         -3.4990    -0.5430     2.0730 c3         1 LCR       0.175800
      8 NAF         -2.4220    -0.5720     1.1040 n3         1 LCR      -0.686600
      9 CAJ         -1.6250    -1.7760     1.2230 c6         1 LCR       0.170800
     10 CAH         -0.5510    -1.8210     0.1550 c6         1 LCR       0.159300
     11 CAI         -1.5600     0.5890     1.1880 c6         1 LCR       0.170800
     12 CAG         -0.4770     0.5400     0.1290 c6         1 LCR       0.159300
     13 NAE          0.3250    -0.6650     0.2720 n3         1 LCR      -0.727600
     14 CAK          1.4350    -0.6960    -0.6630 c3         1 LCR       0.277100
     15 CAM          2.3860     0.4640    -0.4360 ca         1 LCR      -0.068300
     16 CAP          3.0100     1.0750    -1.5160 ca         1 LCR      -0.106000
     17 CAT          3.9360     2.0930    -1.3320 ca         1 LCR      -0.128000
     18 CAX          4.2330     2.5050    -0.0440 ca         1 LCR       0.026400
     19 CLAA         5.3830     3.7800     0.2040 cl         1 LCR      -0.130400
     20 CAU          3.6190     1.9180     1.0520 ca         1 LCR      -0.128000
     21 CAQ          2.7010     0.9010     0.8480 ca         1 LCR      -0.106000
     22 CAN          2.2390    -1.9780    -0.5540 ca         1 LCR      -0.075300
     23 CAR          2.6460    -2.6390    -1.7060 ca         1 LCR      -0.112500
     24 CAV          3.4280    -3.7860    -1.6310 ca         1 LCR      -0.134500
     25 CAY          3.8070    -4.2880    -0.3950 ca         1 LCR      -0.131000
     26 CAW          3.3970    -3.6370     0.7640 ca         1 LCR      -0.134500
     27 CAS          2.6220    -2.4900     0.6850 ca         1 LCR      -0.112500
     28 H2          -5.8110     2.0930     0.1380 h1         1 LCR      -0.004800
     29 H3          -6.9880     1.0660     0.9400 h1         1 LCR      -0.004800
     30 H4          -4.1680     1.4950     1.7520 h1         1 LCR      -0.002800
     31 H5          -5.3150     0.4480     2.5750 h1         1 LCR      -0.002800
     32 H6          -3.1320    -0.3440     3.0950 h1         1 LCR       0.024200
     33 H7          -3.9600    -1.5350     2.1010 h1         1 LCR       0.024200
     34 H9          -1.1450    -1.8560     2.2150 h1         1 LCR       0.031700
     35 H10         -2.2750    -2.6470     1.1100 h1         1 LCR       0.031700
     36 H11          0.0240    -2.7390     0.2780 h1         1 LCR       0.044700
     37 H12         -1.0270    -1.8660    -0.8390 h1         1 LCR       0.044700
     38 H13         -2.1450     1.4990     1.0420 h1         1 LCR       0.031700
     39 H14         -1.0850     0.6680     2.1830 h1         1 LCR       0.031700
     40 H15         -0.9400     0.5940    -0.8710 h1         1 LCR       0.044700
     41 H16          0.1520     1.4240     0.2370 h1         1 LCR       0.044700
     42 H18          1.0710    -0.6270    -1.7040 h1         1 LCR       0.037700
     43 H19          2.7760     0.7580    -2.5260 ha         1 LCR       0.143500
     44 H20          4.4120     2.5580    -2.1840 ha         1 LCR       0.142000
     45 H21          3.8490     2.2510     2.0560 ha         1 LCR       0.142000
     46 H22          2.2120     0.4530     1.7030 ha         1 LCR       0.143500
     47 H23          2.3490    -2.2560    -2.6760 ha         1 LCR       0.136500
     48 H24          3.7320    -4.2890    -2.5400 ha         1 LCR       0.125500
     49 H25          4.4120    -5.1830    -0.3310 ha         1 LCR       0.124000
     50 H26          3.6790    -4.0270     1.7330 ha         1 LCR       0.125500
     51 H27          2.2970    -2.0010     1.5950 ha         1 LCR       0.136500
@<TRIPOS>BOND
     1     1     2 1   
     2     2     3 1   
     3     2     4 1   
     4     4     5 1   
     5     4    28 1   
     6     4    29 1   
     7     5     6 1   
     8     6     7 1   
     9     6    30 1   
    10     6    31 1   
    11     7     8 1   
    12     7    32 1   
    13     7    33 1   
    14     8     9 1   
    15     8    11 1   
    16     9    10 1   
    17     9    34 1   
    18     9    35 1   
    19    10    13 1   
    20    10    36 1   
    21    10    37 1   
    22    11    12 1   
    23    11    38 1   
    24    11    39 1   
    25    12    13 1   
    26    12    40 1   
    27    12    41 1   
    28    13    14 1   
    29    14    15 1   
    30    14    22 1   
    31    14    42 1   
    32    15    16 ar  
    33    15    21 ar  
    34    16    17 ar  
    35    16    43 1   
    36    17    18 ar  
    37    17    44 1   
    38    18    19 1   
    39    18    20 ar  
    40    20    21 ar  
    41    20    45 1   
    42    21    46 1   
    43    22    23 ar  
    44    22    27 ar  
    45    23    24 ar  
    46    23    47 1   
    47    24    25 ar  
    48    24    48 1   
    49    25    26 ar  
    50    25    49 1   
    51    26    27 ar  
    52    26    50 1   
    53    27    51 1   
@<TRIPOS>SUBSTRUCTURE
     1 LCR         1 TEMP              0 ****  ****    0 ROOT
