@<TRIPOS>MOLECULE
LCT
   26    27     1     0     0
SMALL
No Charge or Current Charge


@<TRIPOS>ATOM
      1 C1         -11.4260     3.6350   -12.1280 ca         1 LCT      -0.047500
      2 C2         -11.9500     3.4100   -13.4210 ca         1 LCT      -0.162200
      3 C3         -12.2550     4.5240   -14.2340 ca         1 LCT      -0.047500
      4 C4         -12.0390     5.8310   -13.7630 ca         1 LCT      -0.096500
      5 C5         -11.5140     6.0640   -12.4710 ca         1 LCT      -0.081500
      6 C6         -11.2120     4.9440   -11.6620 ca         1 LCT      -0.096500
      7 O34         -9.6980     9.5490    -8.1270 o          1 LCT      -0.562100
      8 C32         -9.9360    10.5560    -8.7730 c          1 LCT       0.605100
      9 C36         -9.6820    11.9480    -8.2130 c3         1 LCT      -0.170100
     10 C22        -10.7850     9.4670   -10.8330 cc         1 LCT       0.515300
     11 N23        -11.2660     9.6930   -12.0430 nd         1 LCT      -0.389000
     12 N24        -11.5610     8.5210   -12.7150 nd         1 LCT      -0.290000
     13 S21        -10.6500     7.7850   -10.4070 ss         1 LCT      -0.155800
     14 C19        -11.2920     7.4410   -11.9890 cc         1 LCT       0.399900
     15 N13        -12.1800     2.0150   -13.9190 no         1 LCT       0.673200
     16 O15        -12.6410     1.8690   -15.0590 o          1 LCT      -0.393500
     17 O17        -11.8980     1.0710   -13.1690 o          1 LCT      -0.393500
     18 H1         -11.1800     2.7990   -11.4740 ha         1 LCT       0.156000
     19 H2         -12.6600     4.3880   -15.2360 ha         1 LCT       0.156000
     20 H3         -12.2850     6.6650   -14.4180 ha         1 LCT       0.141000
     21 H4         -10.8060     5.0700   -10.6610 ha         1 LCT       0.141000
     22 H5          -9.2740    11.9230    -7.1960 hc         1 LCT       0.074700
     23 H6          -9.0250    12.4950    -8.8980 hc         1 LCT       0.074700
     24 H7         -10.6100    12.5280    -8.2620 hc         1 LCT       0.074700
     25 H8         -10.5930    11.4530   -10.4570 hn         1 LCT       0.347500
     26 N30        -10.4470    10.5420   -10.0460 ns         1 LCT      -0.474400
@<TRIPOS>BOND
     1     1     2 ar  
     2     1     6 ar  
     3     1    18 1   
     4     2     3 ar  
     5     2    15 1   
     6     3     4 ar  
     7     3    19 1   
     8     4     5 ar  
     9     4    20 1   
    10     5     6 ar  
    11     5    14 1   
    12     6    21 1   
    13     7     8 2   
    14     8     9 1   
    15     8    26 1   
    16     9    22 1   
    17     9    23 1   
    18     9    24 1   
    19    10    11 2   
    20    10    13 1   
    21    10    26 1   
    22    11    12 1   
    23    12    14 2   
    24    13    14 1   
    25    15    16 1   
    26    15    17 1   
    27    25    26 1   
@<TRIPOS>SUBSTRUCTURE
     1 LCT         1 TEMP              0 ****  ****    0 ROOT
