@<TRIPOS>MOLECULE
LCT
   26    27     1     0     0
SMALL
abcg2


@<TRIPOS>ATOM
      1 C1         -11.3500     3.6950   -12.1040 ca         1 LCT      -0.047500
      2 C2         -11.9260     3.4900   -13.3510 ca         1 LCT      -0.162200
      3 C3         -12.2940     4.5500   -14.1730 ca         1 LCT      -0.047500
      4 C4         -12.0810     5.8420   -13.7320 ca         1 LCT      -0.096500
      5 C5         -11.5020     6.0800   -12.4770 ca         1 LCT      -0.081500
      6 C6         -11.1400     4.9920   -11.6730 ca         1 LCT      -0.096500
      7 O34         -9.8740     9.4100    -8.3150 o          1 LCT      -0.562100
      8 C32        -10.0180    10.4960    -8.8550 c          1 LCT       0.605100
      9 C36         -9.7000    11.8110    -8.2040 c3         1 LCT      -0.170100
     10 C22        -10.8120     9.5140   -10.9360 cc         1 LCT       0.515300
     11 N23        -11.2500     9.6800   -12.1580 nd         1 LCT      -0.389000
     12 N24        -11.5190     8.4990   -12.7730 nd         1 LCT      -0.290000
     13 S21        -10.6920     7.8630   -10.4340 ss         1 LCT      -0.155800
     14 C19        -11.2860     7.4540   -12.0290 cc         1 LCT       0.399900
     15 N13        -12.1510     2.1210   -13.8130 no         1 LCT       0.673200
     16 O15        -12.6450     1.9560   -14.9220 o          1 LCT      -0.393500
     17 O17        -11.8360     1.1990   -13.0700 o          1 LCT      -0.393500
     18 H1         -11.0720     2.8540   -11.4870 ha         1 LCT       0.156000
     19 H2         -12.7400     4.3610   -15.1370 ha         1 LCT       0.156000
     20 H3         -12.3640     6.6770   -14.3560 ha         1 LCT       0.141000
     21 H4         -10.6880     5.1510   -10.7030 ha         1 LCT       0.141000
     22 H5          -9.5100    11.6520    -7.1460 hc         1 LCT       0.074700
     23 H6          -8.8110    12.2410    -8.6720 hc         1 LCT       0.074700
     24 H7         -10.5210    12.5170    -8.3360 hc         1 LCT       0.074700
     25 H8         -10.6000    11.4950   -10.5730 hn         1 LCT       0.347500
     26 N30        -10.4830    10.5840   -10.1470 ns         1 LCT      -0.474400
@<TRIPOS>BOND
     1     1     2 ar  
     2     1     6 ar  
     3     1    18 1   
     4     2     3 ar  
     5     2    15 1   
     6     3     4 ar  
     7     3    19 1   
     8     4     5 ar  
     9     4    20 1   
    10     5     6 ar  
    11     5    14 1   
    12     6    21 1   
    13     7     8 2   
    14     8     9 1   
    15     8    26 1   
    16     9    22 1   
    17     9    23 1   
    18     9    24 1   
    19    10    11 2   
    20    10    13 1   
    21    10    26 1   
    22    11    12 1   
    23    12    14 2   
    24    13    14 1   
    25    15    16 1   
    26    15    17 1   
    27    25    26 1   
@<TRIPOS>SUBSTRUCTURE
     1 LCT         1 TEMP              0 ****  ****    0 ROOT
