@<TRIPOS>MOLECULE
LCU
   35    37     1     0     0
SMALL
abcg2


@<TRIPOS>ATOM
      1 N1           8.5600     0.3610    21.2400 ns         1 LCU      -0.152000
      2 C4           7.9990     0.8490    18.9010 ca         1 LCU       0.327900
      3 C5           7.6300     0.4570    20.1900 ca         1 LCU      -0.077000
      4 C6           9.7200     1.0630    21.4070 c          1 LCU       0.601100
      5 C7          10.4810     0.7430    22.6740 c3         1 LCU      -0.152400
      6 C8          11.8900     0.2050    22.3800 c5         1 LCU      -0.055700
      7 C10         11.7910    -2.1950    22.8220 cx         1 LCU      -0.137700
      8 C13         12.6400    -0.0660    23.7040 c5         1 LCU      -0.052400
      9 N            7.1350     0.9350    17.8880 nb         1 LCU      -0.646000
     10 C1           6.2910     0.1170    20.4400 ca         1 LCU      -0.088300
     11 C11         13.1070    -2.6010    23.4290 cx         1 LCU      -0.111400
     12 C2           5.4070     0.2080    19.3710 ca         1 LCU      -0.143000
     13 C9          11.8290    -1.1770    21.6850 c5         1 LCU      -0.052400
     14 C12         12.2970    -1.5080    24.0720 cx         1 LCU      -0.137700
     15 C            5.8300    -0.3210    21.7980 c3         1 LCU      -0.051800
     16 O           10.1300     1.8890    20.5980 o          1 LCU      -0.582100
     17 C3           5.8600     0.6210    18.1260 ca         1 LCU       0.313900
     18 H1           8.3030    -0.2430    22.0050 hn         1 LCU       0.151000
     19 H2           9.0280     1.1010    18.6920 h4         1 LCU       0.047100
     20 H3          10.5620     1.6750    23.2400 hc         1 LCU       0.062200
     21 H4           9.9330     0.0280    23.2920 hc         1 LCU       0.062200
     22 H5          12.4130     0.9390    21.7650 hc         1 LCU       0.076700
     23 H6          10.9670    -2.8930    22.8720 hc         1 LCU       0.084200
     24 H7          13.7170     0.0570    23.5610 hc         1 LCU       0.051200
     25 H8          12.3360     0.6320    24.4850 hc         1 LCU       0.051200
     26 H9          13.1570    -3.5570    23.9350 hc         1 LCU       0.072200
     27 H10         14.0140    -2.3180    22.9050 hc         1 LCU       0.072200
     28 H11          4.3630    -0.0390    19.5130 ha         1 LCU       0.120000
     29 H12         10.9590    -1.2700    21.0350 hc         1 LCU       0.051200
     30 H13         12.7130    -1.3230    21.0590 hc         1 LCU       0.051200
     31 H14         11.8430    -1.7080    25.0340 hc         1 LCU       0.084200
     32 H15          6.3040    -1.2630    22.0930 hc         1 LCU       0.046033
     33 H16          6.0850     0.4210    22.5590 hc         1 LCU       0.046033
     34 H17          4.7520    -0.4710    21.8070 hc         1 LCU       0.046033
     35 H18          5.1730     0.6970    17.2900 h4         1 LCU       0.021100
@<TRIPOS>BOND
     1     1     3 1   
     2     1     4 1   
     3     1    18 1   
     4     2     3 ar  
     5     2     9 ar  
     6     2    19 1   
     7     3    10 ar  
     8     4     5 1   
     9     4    16 2   
    10     5     6 1   
    11     5    20 1   
    12     5    21 1   
    13     6     8 1   
    14     6    13 1   
    15     6    22 1   
    16     7    11 1   
    17     7    13 1   
    18     7    14 1   
    19     7    23 1   
    20     8    14 1   
    21     8    24 1   
    22     8    25 1   
    23     9    17 ar  
    24    10    12 ar  
    25    10    15 1   
    26    11    14 1   
    27    11    26 1   
    28    11    27 1   
    29    12    17 ar  
    30    12    28 1   
    31    13    29 1   
    32    13    30 1   
    33    14    31 1   
    34    15    32 1   
    35    15    33 1   
    36    15    34 1   
    37    17    35 1   
@<TRIPOS>SUBSTRUCTURE
     1 LCU         1 TEMP              0 ****  ****    0 ROOT
