@<TRIPOS>MOLECULE
LCU
   35    37     1     0     0
SMALL
No Charge or Current Charge


@<TRIPOS>ATOM
      1 N1           8.7230     0.7310    21.1910 ns         1 LCU      -0.152000
      2 C4           7.6650     1.6090    19.1020 ca         1 LCU       0.327900
      3 C5           7.6800     0.7340    20.2190 ca         1 LCU      -0.077000
      4 C6           9.9570     1.3670    21.2320 c          1 LCU       0.601100
      5 C7          10.7650     1.0890    22.5070 c3         1 LCU      -0.152400
      6 C8          11.9780     0.1450    22.2480 c5         1 LCU      -0.055700
      7 C10         11.2290    -2.0050    23.0550 cx         1 LCU      -0.137700
      8 C13         12.7930    -0.1750    23.5410 c5         1 LCU      -0.052400
      9 N            6.6750     1.6210    18.1770 nb         1 LCU      -0.646000
     10 C1           6.6040    -0.1690    20.3740 ca         1 LCU      -0.088300
     11 C11         12.3810    -2.7070    23.7380 cx         1 LCU      -0.111400
     12 C2           5.5810    -0.1520    19.4080 ca         1 LCU      -0.143000
     13 C9          11.5950    -1.2860    21.7460 c5         1 LCU      -0.052400
     14 C12         11.9760    -1.3160    24.1710 cx         1 LCU      -0.137700
     15 C            6.5380    -1.1470    21.5440 c3         1 LCU      -0.051800
     16 O           10.3810     2.1020    20.3490 o          1 LCU      -0.582100
     17 C3           5.6550     0.7500    18.3340 ca         1 LCU       0.313900
     18 H1           8.5320     0.1490    21.9960 hn         1 LCU       0.151000
     19 H2           8.4540     2.3380    18.9340 h4         1 LCU       0.047100
     20 H3          11.1410     2.0480    22.8820 hc         1 LCU       0.062200
     21 H4          10.1090     0.6440    23.2650 hc         1 LCU       0.062200
     22 H5          12.6130     0.6540    21.5120 hc         1 LCU       0.076700
     23 H6          10.2110    -2.3390    23.2450 hc         1 LCU       0.084200
     24 H7          13.8180    -0.4840    23.3030 hc         1 LCU       0.051200
     25 H8          12.8740     0.6950    24.2040 hc         1 LCU       0.051200
     26 H9          12.1410    -3.5300    24.4070 hc         1 LCU       0.072200
     27 H10         13.3140    -2.8340    23.1930 hc         1 LCU       0.072200
     28 H11          4.7330    -0.8270    19.4800 ha         1 LCU       0.120000
     29 H12         10.7680    -1.2810    21.0280 hc         1 LCU       0.051200
     30 H13         12.4390    -1.7670    21.2370 hc         1 LCU       0.051200
     31 H14         11.4680    -1.1810    25.1230 hc         1 LCU       0.084200
     32 H15          7.4160    -1.8030    21.5610 hc         1 LCU       0.046033
     33 H16          6.4940    -0.6150    22.5010 hc         1 LCU       0.046033
     34 H17          5.6510    -1.7900    21.4860 hc         1 LCU       0.046033
     35 H18          4.8710     0.7770    17.5780 h4         1 LCU       0.021100
@<TRIPOS>BOND
     1     1     3 1   
     2     1     4 1   
     3     1    18 1   
     4     2     3 ar  
     5     2     9 ar  
     6     2    19 1   
     7     3    10 ar  
     8     4     5 1   
     9     4    16 2   
    10     5     6 1   
    11     5    20 1   
    12     5    21 1   
    13     6     8 1   
    14     6    13 1   
    15     6    22 1   
    16     7    11 1   
    17     7    13 1   
    18     7    14 1   
    19     7    23 1   
    20     8    14 1   
    21     8    24 1   
    22     8    25 1   
    23     9    17 ar  
    24    10    12 ar  
    25    10    15 1   
    26    11    14 1   
    27    11    26 1   
    28    11    27 1   
    29    12    17 ar  
    30    12    28 1   
    31    13    29 1   
    32    13    30 1   
    33    14    31 1   
    34    15    32 1   
    35    15    33 1   
    36    15    34 1   
    37    17    35 1   
@<TRIPOS>SUBSTRUCTURE
     1 LCU         1 TEMP              0 ****  ****    0 ROOT
