@<TRIPOS>MOLECULE
LCY
   15    15     1     0     0
SMALL
bcc


@<TRIPOS>ATOM
      1 C1           0.7800    -1.6100    -0.0370 c5         1 LCY      -0.168900
      2 C2          -0.7410    -1.6020     0.0350 c5         1 LCY      -0.168900
      3 C3          -1.1190    -0.1440     0.0550 c          1 LCY       0.708500
      4 O2          -2.2280     0.3300     0.1200 o          1 LCY      -0.578000
      5 N1           0.0320     0.6060    -0.0170 n          1 LCY      -0.520400
      6 C4           1.1790    -0.1570    -0.0690 c          1 LCY       0.708500
      7 O1           2.2970     0.2940    -0.1280 o          1 LCY      -0.578000
      8 C5           0.0170     2.0510    -0.0230 c3         1 LCY       0.090300
      9 H1           1.2460    -2.0880     0.8260 hc         1 LCY       0.086700
     10 H1A          1.1650    -2.1070    -0.9280 hc         1 LCY       0.086700
     11 H2          -1.2120    -2.0810    -0.8250 hc         1 LCY       0.086700
     12 H2A         -1.1310    -2.0880     0.9300 hc         1 LCY       0.086700
     13 H5          -0.3160     2.4370     0.9390 h1         1 LCY       0.053700
     14 H5A          1.0210     2.4140    -0.2190 h1         1 LCY       0.053700
     15 H5B         -0.6480     2.4180    -0.8020 h1         1 LCY       0.053700
@<TRIPOS>BOND
     1     1     2 1   
     2     1     6 1   
     3     1     9 1   
     4     1    10 1   
     5     2     3 1   
     6     2    11 1   
     7     2    12 1   
     8     3     4 2   
     9     3     5 1   
    10     5     6 1   
    11     5     8 1   
    12     6     7 2   
    13     8    13 1   
    14     8    14 1   
    15     8    15 1   
@<TRIPOS>SUBSTRUCTURE
     1 LCY         1 TEMP              0 ****  ****    0 ROOT
