@<TRIPOS>MOLECULE
LCY
   15    15     1     0     0
SMALL
No Charge or Current Charge


@<TRIPOS>ATOM
      1 C1           0.7710    -1.6060     0.1940 c5         1 LCY      -0.168900
      2 C2          -0.7370    -1.6030    -0.2010 c5         1 LCY      -0.168900
      3 C3          -1.1560    -0.1610     0.1190 c          1 LCY       0.566000
      4 O2          -2.1980     0.2680     0.5930 o          1 LCY      -0.502500
      5 N1           0.0220     0.5600    -0.0220 n          1 LCY      -0.386400
      6 C4           1.1990    -0.1680    -0.1380 c          1 LCY       0.566000
      7 O1           2.2530     0.2500    -0.5950 o          1 LCY      -0.502500
      8 C5           0.0290     2.0390    -0.0210 c3         1 LCY       0.090300
      9 H1           0.8460    -1.7300     1.2800 hc         1 LCY       0.086700
     10 H1A          1.4040    -2.3480    -0.3030 hc         1 LCY       0.086700
     11 H2          -0.8110    -1.7360    -1.2870 hc         1 LCY       0.086700
     12 H2A         -1.3740    -2.3380     0.3020 hc         1 LCY       0.086700
     13 H5           0.3010     2.4050     0.9770 h1         1 LCY       0.053700
     14 H5A          0.7570     2.4150    -0.7520 h1         1 LCY       0.053700
     15 H5B         -0.9630     2.4260    -0.2880 h1         1 LCY       0.053700
@<TRIPOS>BOND
     1     1     2 1   
     2     1     6 1   
     3     1     9 1   
     4     1    10 1   
     5     2     3 1   
     6     2    11 1   
     7     2    12 1   
     8     3     4 2   
     9     3     5 1   
    10     5     6 1   
    11     5     8 1   
    12     6     7 2   
    13     8    13 1   
    14     8    14 1   
    15     8    15 1   
@<TRIPOS>SUBSTRUCTURE
     1 LCY         1 TEMP              0 ****  ****    0 ROOT
