@<TRIPOS>MOLECULE
LCZ
   21    20     1     0     0
SMALL
No Charge or Current Charge


@<TRIPOS>ATOM
      1 N           45.4110  -139.8770    59.4790 n8         1 LCZ      -0.986200
      2 CA          45.5780  -139.9000    60.9750 c3         1 LCZ       0.049500
      3 C           45.0370  -141.1780    61.7120 c          1 LCZ       0.569900
      4 CB          44.9720  -138.6170    61.6140 c3         1 LCZ      -0.064400
      5 CG          45.5890  -137.2590    61.1610 c3         1 LCZ      -0.062700
      6 CD1         44.8120  -136.0720    61.7740 c3         1 LCZ      -0.089100
      7 CD2         47.0990  -137.1450    61.4840 c3         1 LCZ      -0.089100
      8 O           44.5110  -142.1350    61.1480 o          1 LCZ      -0.499100
      9 HN1         45.9300  -139.0810    59.0900 hn         1 LCZ       0.403500
     10 HN2         45.8760  -140.6970    59.0680 hn         1 LCZ       0.403500
     11 HA          46.6570  -139.8990    61.1780 h1         1 LCZ       0.030700
     12 HC2         45.2100  -141.1950    62.8110 h4         1 LCZ      -0.016800
     13 HB1         43.8940  -138.6050    61.4090 hc         1 LCZ       0.049200
     14 HB2         45.0710  -138.6890    62.7050 hc         1 LCZ       0.049200
     15 HG          45.4780  -137.1780    60.0720 hc         1 LCZ       0.053700
     16 HD11        43.7510  -136.1180    61.4990 hc         1 LCZ       0.033033
     17 HD12        44.8840  -136.0800    62.8690 hc         1 LCZ       0.033033
     18 HD13        45.2110  -135.1170    61.4110 hc         1 LCZ       0.033033
     19 HD21        47.4830  -136.1610    61.1910 hc         1 LCZ       0.033033
     20 HD22        47.2800  -137.2760    62.5580 hc         1 LCZ       0.033033
     21 HD23        47.6810  -137.8990    60.9410 hc         1 LCZ       0.033033
@<TRIPOS>BOND
     1     1     2 1   
     2     1     9 1   
     3     1    10 1   
     4     2     3 1   
     5     2     4 1   
     6     2    11 1   
     7     3     8 2   
     8     3    12 1   
     9     4     5 1   
    10     4    13 1   
    11     4    14 1   
    12     5     6 1   
    13     5     7 1   
    14     5    15 1   
    15     6    16 1   
    16     6    17 1   
    17     6    18 1   
    18     7    19 1   
    19     7    20 1   
    20     7    21 1   
@<TRIPOS>SUBSTRUCTURE
     1 LCZ         1 TEMP              0 ****  ****    0 ROOT
