@<TRIPOS>MOLECULE
LCZ
   21    20     1     0     0
SMALL
bcc


@<TRIPOS>ATOM
      1 N           45.5040  -139.8850    59.5600 n8         1 LCZ      -0.875800
      2 CA          45.6440  -139.8570    60.9970 c3         1 LCZ       0.049500
      3 C           45.0130  -141.0620    61.6320 c          1 LCZ       0.569900
      4 CB          44.9890  -138.6120    61.6060 c3         1 LCZ      -0.064400
      5 CG          45.5650  -137.2740    61.1370 c3         1 LCZ      -0.062700
      6 CD1         44.8150  -136.1330    61.8170 c3         1 LCZ      -0.089100
      7 CD2         47.0630  -137.1650    61.4000 c3         1 LCZ      -0.089100
      8 O           44.5020  -141.9790    61.0390 o          1 LCZ      -0.499100
      9 HN1         46.0440  -139.1340    59.1510 hn         1 LCZ       0.348300
     10 HN2         45.8950  -140.7410    59.1870 hn         1 LCZ       0.348300
     11 HA          46.6910  -139.8890    61.3510 h1         1 LCZ       0.030700
     12 HC2         45.0650  -141.0560    62.7370 h4         1 LCZ      -0.016800
     13 HB1         43.9170  -138.6360    61.3820 hc         1 LCZ       0.049200
     14 HB2         45.0840  -138.6680    62.6970 hc         1 LCZ       0.049200
     15 HG          45.3960  -137.1810    60.0580 hc         1 LCZ       0.053700
     16 HD11        43.7420  -136.1900    61.6250 hc         1 LCZ       0.033033
     17 HD12        44.9600  -136.1620    62.9000 hc         1 LCZ       0.033033
     18 HD13        45.1660  -135.1630    61.4620 hc         1 LCZ       0.033033
     19 HD21        47.4370  -136.1820    61.1090 hc         1 LCZ       0.033033
     20 HD22        47.2850  -137.3020    62.4610 hc         1 LCZ       0.033033
     21 HD23        47.6380  -137.9060    60.8420 hc         1 LCZ       0.033033
@<TRIPOS>BOND
     1     1     2 1   
     2     1     9 1   
     3     1    10 1   
     4     2     3 1   
     5     2     4 1   
     6     2    11 1   
     7     3     8 2   
     8     3    12 1   
     9     4     5 1   
    10     4    13 1   
    11     4    14 1   
    12     5     6 1   
    13     5     7 1   
    14     5    15 1   
    15     6    16 1   
    16     6    17 1   
    17     6    18 1   
    18     7    19 1   
    19     7    20 1   
    20     7    21 1   
@<TRIPOS>SUBSTRUCTURE
     1 LCZ         1 TEMP              0 ****  ****    0 ROOT
