@<TRIPOS>MOLECULE
LD0
   45    46     1     0     0
SMALL
bcc


@<TRIPOS>ATOM
      1 C15        -50.3020    14.9980    36.5500 c          1 LD0       0.560900
      2 C17        -51.7360    14.4850    34.5280 c6         1 LD0       0.305600
      3 C20        -53.1290    12.1000    33.0450 c6         1 LD0      -0.006700
      4 C21        -51.8670    11.8340    33.9040 c6         1 LD0       0.037700
      5 C01        -53.2850    17.4600    40.4020 c3         1 LD0       0.137700
      6 C04        -54.7330    15.5730    37.9360 ce         1 LD0       0.310300
      7 C05        -56.0240    15.3770    37.2780 cc         1 LD0       0.363000
      8 C06        -57.1720    16.0440    37.5640 cd         1 LD0      -0.195400
      9 C08        -57.3000    14.3780    35.7890 cd         1 LD0       0.756300
     10 C11        -53.6040    14.6660    37.5080 c          1 LD0       0.611800
     11 C14        -51.6440    14.4930    36.0730 c3         1 LD0      -0.011300
     12 C19        -53.2920    13.6100    32.8490 c6         1 LD0       0.029500
     13 C23        -54.2740    11.4350    33.8060 c3         1 LD0       0.044700
     14 C25        -54.6160    14.0370    32.1800 c          1 LD0       0.933600
     15 N03        -54.6200    16.4330    38.8660 n2         1 LD0      -0.431200
     16 N09        -56.1000    14.4420    36.2790 nc         1 LD0      -0.697000
     17 N10        -57.6990    13.5110    34.8380 nv         1 LD0      -0.932500
     18 N13        -52.7250    15.2260    36.6650 ns         1 LD0      -0.529900
     19 N18        -53.1020    14.2380    34.1400 n7         1 LD0      -0.829200
     20 O02        -53.3660    16.4790    39.3840 os         1 LD0      -0.178300
     21 O12        -53.5540    13.5220    37.9180 o          1 LD0      -0.589100
     22 O16        -50.1620    15.8330    37.4040 o          1 LD0      -0.523100
     23 O26        -54.8910    13.4330    31.1270 o          1 LD0      -0.820800
     24 O27        -55.2510    14.9690    32.7110 o          1 LD0      -0.820800
     25 S07        -58.4320    15.4820    36.5330 ss         1 LD0      -0.307300
     26 S22        -50.6510    13.1780    33.8450 ss         1 LD0      -0.414200
     27 S24        -55.8250    11.2190    32.8530 sh         1 LD0      -0.335900
     28 H1         -49.4350    14.5260    36.0570 h4         1 LD0      -0.000800
     29 H2         -51.3330    15.4270    34.1270 h2         1 LD0       0.035700
     30 H3         -53.0050    11.6220    32.0710 hc         1 LD0       0.072700
     31 H4         -52.1400    11.6720    34.9490 h1         1 LD0       0.056700
     32 H5         -51.3490    10.9340    33.5720 h1         1 LD0       0.056700
     33 H6         -52.2620    17.4260    40.7700 h1         1 LD0       0.034033
     34 H7         -53.4910    18.4600    40.0150 h1         1 LD0       0.034033
     35 H8         -53.9680    17.2430    41.2250 h1         1 LD0       0.034033
     36 H9         -57.3430    16.8130    38.3000 h4         1 LD0       0.176000
     37 H10        -51.7280    13.4540    36.4090 h1         1 LD0       0.113700
     38 H11        -52.5180    13.9240    32.1320 h1         1 LD0       0.038700
     39 H12        -54.4880    12.0090    34.7090 h1         1 LD0       0.055700
     40 H13        -53.9620    10.4370    34.1140 h1         1 LD0       0.055700
     41 H14        -58.5610    13.6890    34.3500 hn         1 LD0       0.446800
     42 H15        -56.9830    13.0660    34.2750 hn         1 LD0       0.446800
     43 H16        -52.8370    16.1990    36.4210 hn         1 LD0       0.323500
     44 H17        -53.6630    15.0790    34.1860 hn         1 LD0       0.413800
     45 H20        -56.3430    10.3060    33.6860 hs         1 LD0       0.137800
@<TRIPOS>BOND
     1     1    11 1   
     2     1    22 2   
     3     1    28 1   
     4     2    11 1   
     5     2    19 1   
     6     2    26 1   
     7     2    29 1   
     8     3     4 1   
     9     3    12 1   
    10     3    13 1   
    11     3    30 1   
    12     4    26 1   
    13     4    31 1   
    14     4    32 1   
    15     5    20 1   
    16     5    33 1   
    17     5    34 1   
    18     5    35 1   
    19     6     7 1   
    20     6    10 1   
    21     6    15 2   
    22     7     8 2   
    23     7    16 1   
    24     8    25 1   
    25     8    36 1   
    26     9    16 2   
    27     9    17 1   
    28     9    25 1   
    29    10    18 1   
    30    10    21 2   
    31    11    18 1   
    32    11    37 1   
    33    12    14 1   
    34    12    19 1   
    35    12    38 1   
    36    13    27 1   
    37    13    39 1   
    38    13    40 1   
    39    14    23 1   
    40    14    24 1   
    41    15    20 1   
    42    17    41 1   
    43    17    42 1   
    44    18    43 1   
    45    19    44 1   
    46    27    45 1   
@<TRIPOS>SUBSTRUCTURE
     1 LD0         1 TEMP              0 ****  ****    0 ROOT
