@<TRIPOS>MOLECULE
LD0
   45    46     1     0     0
SMALL
No Charge or Current Charge


@<TRIPOS>ATOM
      1 C15        -50.2460    14.8650    36.6690 c          1 LD0       0.560900
      2 C17        -51.9180    14.1510    34.8720 c6         1 LD0       0.353500
      3 C20        -52.8270    11.9210    32.7760 c6         1 LD0      -0.006700
      4 C21        -51.6070    11.6110    33.6900 c6         1 LD0       0.085600
      5 C01        -53.0860    17.9910    40.2740 c3         1 LD0       0.160900
      6 C04        -54.8290    15.9570    37.9630 ce         1 LD0       0.310300
      7 C05        -56.2110    15.8130    37.4640 cc         1 LD0       0.297700
      8 C06        -57.3010    16.5810    37.8290 cd         1 LD0      -0.257000
      9 C08        -57.7160    14.9640    36.1050 cd         1 LD0       0.756300
     10 C11        -53.8460    14.8410    37.6580 c          1 LD0       0.544800
     11 C14        -51.6740    14.3520    36.4000 c3         1 LD0      -0.011300
     12 C19        -53.5050    13.2850    33.1580 c6         1 LD0       0.029500
     13 C23        -53.7950    10.7000    32.7730 c3         1 LD0       0.092600
     14 C25        -55.0130    13.4100    32.6700 c          1 LD0       0.723000
     15 N03        -54.4900    16.9900    38.6940 n2         1 LD0      -0.332700
     16 N09        -56.4650    14.9070    36.4540 nc         1 LD0      -0.697000
     17 N10        -58.0860    14.1780    35.0980 nv         1 LD0      -1.042900
     18 N13        -52.6720    15.2540    37.0450 ns         1 LD0      -0.462900
     19 N18        -53.2630    13.6090    34.6150 n7         1 LD0      -0.884400
     20 O02        -53.3660    16.7950    39.5250 os         1 LD0      -0.300000
     21 O12        -54.0760    13.6480    37.8430 o          1 LD0      -0.589100
     22 O16        -49.9800    16.0250    36.9750 o          1 LD0      -0.523100
     23 O26        -55.1970    14.1270    31.6940 o          1 LD0      -0.715500
     24 O27        -55.8930    13.2740    33.5130 o          1 LD0      -0.715500
     25 S07        -58.7370    16.1320    36.9150 ss         1 LD0      -0.162400
     26 S22        -50.5930    13.1010    34.1200 ss         1 LD0      -0.510000
     27 S24        -54.8970    10.4870    31.2960 sh         1 LD0      -0.383800
     28 H1         -49.4410    14.1010    36.5920 h4         1 LD0      -0.000800
     29 H2         -51.8450    15.1320    34.3770 h2         1 LD0       0.035700
     30 H3         -52.4560    12.0110    31.7460 hc         1 LD0       0.072700
     31 H4         -51.9580    11.1780    34.6380 h1         1 LD0       0.056700
     32 H5         -50.9540    10.8680    33.2090 h1         1 LD0       0.056700
     33 H6         -52.2120    17.8390    40.9190 h1         1 LD0       0.034033
     34 H7         -52.8710    18.8320    39.6020 h1         1 LD0       0.034033
     35 H8         -53.9380    18.2620    40.9110 h1         1 LD0       0.034033
     36 H9         -57.3350    17.3760    38.5640 h4         1 LD0       0.158000
     37 H10        -51.7290    13.3620    36.8690 h1         1 LD0       0.113700
     38 H11        -52.9800    14.0620    32.5800 h1         1 LD0       0.038700
     39 H12        -54.4180    10.7360    33.6760 h1         1 LD0       0.055700
     40 H13        -53.1910     9.7850    32.8320 h1         1 LD0       0.055700
     41 H14        -58.8670    14.5050    34.5470 hn         1 LD0       0.502000
     42 H15        -57.2920    13.8160    34.5610 hn         1 LD0       0.502000
     43 H16        -52.5280    16.2580    36.9790 hn         1 LD0       0.323500
     44 H17        -53.9620    14.2920    34.9320 hn         1 LD0       0.469000
     45 H20        -55.5020     9.3550    31.7240 hs         1 LD0       0.137800
@<TRIPOS>BOND
     1     1    11 1   
     2     1    22 2   
     3     1    28 1   
     4     2    11 1   
     5     2    19 1   
     6     2    26 1   
     7     2    29 1   
     8     3     4 1   
     9     3    12 1   
    10     3    13 1   
    11     3    30 1   
    12     4    26 1   
    13     4    31 1   
    14     4    32 1   
    15     5    20 1   
    16     5    33 1   
    17     5    34 1   
    18     5    35 1   
    19     6     7 1   
    20     6    10 1   
    21     6    15 2   
    22     7     8 2   
    23     7    16 1   
    24     8    25 1   
    25     8    36 1   
    26     9    16 2   
    27     9    17 1   
    28     9    25 1   
    29    10    18 1   
    30    10    21 2   
    31    11    18 1   
    32    11    37 1   
    33    12    14 1   
    34    12    19 1   
    35    12    38 1   
    36    13    27 1   
    37    13    39 1   
    38    13    40 1   
    39    14    23 1   
    40    14    24 1   
    41    15    20 1   
    42    17    41 1   
    43    17    42 1   
    44    18    43 1   
    45    19    44 1   
    46    27    45 1   
@<TRIPOS>SUBSTRUCTURE
     1 LD0         1 TEMP              0 ****  ****    0 ROOT
