@<TRIPOS>MOLECULE
LD1
   39    43     1     0     0
SMALL
abcg2


@<TRIPOS>ATOM
      1 C1          -3.5770     0.7750     0.2810 ca         1 LD1       0.109100
      2 C2          -3.2220    -0.5600     0.0660 ca         1 LD1      -0.089000
      3 C3          -1.8930    -0.9320     0.0870 ca         1 LD1      -0.083000
      4 C4          -0.8990     0.0160     0.3450 ca         1 LD1      -0.140900
      5 C5          -1.2670     1.3420     0.5710 ca         1 LD1      -0.078000
      6 C6          -2.5990     1.7220     0.5240 ca         1 LD1      -0.113000
      7 O7          -4.8770     1.1270     0.2990 os         1 LD1      -0.323100
      8 C8          -5.7330     0.3600    -0.5310 c6         1 LD1       0.072600
      9 C9          -5.5160    -1.1340    -0.4070 c          1 LD1       0.543000
     10 N10         -4.2440    -1.4880    -0.1130 ns         1 LD1      -0.143000
     11 O11         -6.4070    -1.9330    -0.6070 o          1 LD1      -0.519000
     12 C12          0.5130    -0.3860     0.3430 ce         1 LD1       0.459900
     13 C13          1.5210     0.5180     1.0180 c6         1 LD1       0.021300
     14 S14          2.7700    -0.4810     1.9200 ss         1 LD1      -0.249300
     15 C15          3.0930    -1.5490     0.6060 cc         1 LD1       0.440800
     16 N16          2.0980    -1.8720    -0.2620 na         1 LD1      -0.133600
     17 N17          0.8060    -1.4690    -0.2740 n2         1 LD1      -0.487100
     18 N18          4.1670    -2.2220     0.3210 nd         1 LD1      -0.307000
     19 N19          3.8780    -3.0070    -0.7570 nd         1 LD1      -0.355000
     20 C20          2.6450    -2.7960    -1.0940 cc         1 LD1       0.424400
     21 C21          2.1630     1.5170     0.0880 ca         1 LD1      -0.091300
     22 C22          2.7140     2.6710     0.6430 ca         1 LD1      -0.092000
     23 C23          3.3260     3.6180    -0.1610 ca         1 LD1      -0.103500
     24 C24          3.3950     3.4240    -1.5360 ca         1 LD1      -0.095000
     25 C25          2.8450     2.2810    -2.0950 ca         1 LD1      -0.103500
     26 C26          2.2280     1.3320    -1.2890 ca         1 LD1      -0.092000
     27 H3          -1.6280    -1.9690    -0.0740 ha         1 LD1       0.139000
     28 H5          -0.5230     2.1060     0.7540 ha         1 LD1       0.129000
     29 H6          -2.8810     2.7530     0.6920 ha         1 LD1       0.139000
     30 H8          -6.7540     0.5980    -0.2430 h1         1 LD1       0.088700
     31 H8A         -5.6000     0.6380    -1.5840 h1         1 LD1       0.088700
     32 HN10        -4.0180    -2.4730    -0.0860 hn         1 LD1       0.170000
     33 H13          1.0220     1.0500     1.8290 h1         1 LD1       0.107700
     34 H20          2.1060    -3.2430    -1.9140 h5         1 LD1       0.077100
     35 H22          2.6650     2.8280     1.7140 ha         1 LD1       0.116000
     36 H23          3.7460     4.5100     0.2850 ha         1 LD1       0.119000
     37 H24          3.8720     4.1630    -2.1660 ha         1 LD1       0.118000
     38 H25          2.8880     2.1230    -3.1650 ha         1 LD1       0.119000
     39 H26          1.7930     0.4600    -1.7590 ha         1 LD1       0.116000
@<TRIPOS>BOND
     1     1     2 ar  
     2     1     6 ar  
     3     1     7 1   
     4     2     3 ar  
     5     2    10 1   
     6     3     4 ar  
     7     3    27 1   
     8     4     5 ar  
     9     4    12 1   
    10     5     6 ar  
    11     5    28 1   
    12     6    29 1   
    13     7     8 1   
    14     8     9 1   
    15     8    30 1   
    16     8    31 1   
    17     9    10 1   
    18     9    11 2   
    19    10    32 1   
    20    12    13 1   
    21    12    17 2   
    22    13    14 1   
    23    13    21 1   
    24    13    33 1   
    25    14    15 1   
    26    15    16 1   
    27    15    18 2   
    28    16    17 1   
    29    16    20 1   
    30    18    19 1   
    31    19    20 2   
    32    20    34 1   
    33    21    22 ar  
    34    21    26 ar  
    35    22    23 ar  
    36    22    35 1   
    37    23    24 ar  
    38    23    36 1   
    39    24    25 ar  
    40    24    37 1   
    41    25    26 ar  
    42    25    38 1   
    43    26    39 1   
@<TRIPOS>SUBSTRUCTURE
     1 LD1         1 TEMP              0 ****  ****    0 ROOT
