@<TRIPOS>MOLECULE
LD1
   39    43     1     0     0
SMALL
No Charge or Current Charge


@<TRIPOS>ATOM
      1 C1          -3.5640     0.8400     0.1980 ca         1 LD1       0.109100
      2 C2          -3.2290    -0.5160     0.0040 ca         1 LD1      -0.089000
      3 C3          -1.8840    -0.9190    -0.0090 ca         1 LD1      -0.083000
      4 C4          -0.8480     0.0290     0.1870 ca         1 LD1      -0.140900
      5 C5          -1.2020     1.3890     0.3690 ca         1 LD1      -0.078000
      6 C6          -2.5510     1.7870     0.3880 ca         1 LD1      -0.113000
      7 O7          -4.8910     1.2320     0.2190 os         1 LD1      -0.323100
      8 C8          -5.8540     0.3730    -0.4540 c6         1 LD1       0.072600
      9 C9          -5.6170    -1.1160    -0.1310 c          1 LD1       0.543000
     10 N10         -4.2810    -1.4510    -0.1180 ns         1 LD1      -0.143000
     11 O11         -6.5110    -1.9060     0.1520 o          1 LD1      -0.519000
     12 C12          0.5950    -0.3990     0.1300 ce         1 LD1       0.459900
     13 C13          1.6380     0.4420     0.9100 c6         1 LD1       0.021300
     14 S14          2.9830    -0.5730     1.6870 ss         1 LD1      -0.249300
     15 C15          3.1560    -1.7910     0.4400 cc         1 LD1       0.440800
     16 N16          2.1680    -2.0770    -0.4550 na         1 LD1      -0.133600
     17 N17          0.8970    -1.4960    -0.5110 n2         1 LD1      -0.487100
     18 N18          4.1050    -2.7060     0.3840 nd         1 LD1      -0.307000
     19 N19          3.7330    -3.5970    -0.6200 nd         1 LD1      -0.355000
     20 C20          2.5430    -3.2280    -1.1040 cc         1 LD1       0.424400
     21 C21          2.2390     1.5920     0.0860 ca         1 LD1      -0.091300
     22 C22          2.3890     2.8640     0.6750 ca         1 LD1      -0.092000
     23 C23          2.9380     3.9290    -0.0600 ca         1 LD1      -0.103500
     24 C24          3.3440     3.7300    -1.3890 ca         1 LD1      -0.095000
     25 C25          3.2030     2.4650    -1.9820 ca         1 LD1      -0.103500
     26 C26          2.6550     1.3990    -1.2480 ca         1 LD1      -0.092000
     27 H3          -1.6470    -1.9720    -0.1540 ha         1 LD1       0.139000
     28 H5          -0.4390     2.1540     0.4900 ha         1 LD1       0.129000
     29 H6          -2.8100     2.8330     0.5350 ha         1 LD1       0.139000
     30 H8          -6.8750     0.6450    -0.1560 h1         1 LD1       0.088700
     31 H8A         -5.7470     0.4910    -1.5400 h1         1 LD1       0.088700
     32 HN10        -4.0510    -2.4260     0.0320 hn         1 LD1       0.170000
     33 H13          1.1070     0.8940     1.7590 h1         1 LD1       0.107700
     34 H20          1.9460    -3.7230    -1.8600 h5         1 LD1       0.077100
     35 H22          2.0830     3.0300     1.7060 ha         1 LD1       0.116000
     36 H23          3.0490     4.9070     0.4020 ha         1 LD1       0.119000
     37 H24          3.7690     4.5550    -1.9580 ha         1 LD1       0.118000
     38 H25          3.5210     2.3090    -3.0110 ha         1 LD1       0.119000
     39 H26          2.5590     0.4270    -1.7260 ha         1 LD1       0.116000
@<TRIPOS>BOND
     1     1     2 ar  
     2     1     6 ar  
     3     1     7 1   
     4     2     3 ar  
     5     2    10 1   
     6     3     4 ar  
     7     3    27 1   
     8     4     5 ar  
     9     4    12 1   
    10     5     6 ar  
    11     5    28 1   
    12     6    29 1   
    13     7     8 1   
    14     8     9 1   
    15     8    30 1   
    16     8    31 1   
    17     9    10 1   
    18     9    11 2   
    19    10    32 1   
    20    12    13 1   
    21    12    17 2   
    22    13    14 1   
    23    13    21 1   
    24    13    33 1   
    25    14    15 1   
    26    15    16 1   
    27    15    18 2   
    28    16    17 1   
    29    16    20 1   
    30    18    19 1   
    31    19    20 2   
    32    20    34 1   
    33    21    22 ar  
    34    21    26 ar  
    35    22    23 ar  
    36    22    35 1   
    37    23    24 ar  
    38    23    36 1   
    39    24    25 ar  
    40    24    37 1   
    41    25    26 ar  
    42    25    38 1   
    43    26    39 1   
@<TRIPOS>SUBSTRUCTURE
     1 LD1         1 TEMP              0 ****  ****    0 ROOT
