@<TRIPOS>MOLECULE
LD4
   31    32     1     0     0
SMALL
No Charge or Current Charge


@<TRIPOS>ATOM
      1 N1           2.7770    -1.1750    -0.4400 nb         1 LD4      -0.249500
      2 C4          -0.8190    -0.3770     0.0930 c3         1 LD4       0.254500
      3 C5          -1.8440    -1.5190     0.3220 c3         1 LD4      -0.087400
      4 C6          -3.2130    -1.0990     0.9060 c3         1 LD4      -0.065900
      5 C7          -3.9790    -0.0100     0.1200 c3         1 LD4      -0.071900
      6 C8          -3.3390     1.3910     0.2260 c3         1 LD4      -0.071900
      7 C10         -1.2090     0.5440    -1.0940 c3         1 LD4      -0.087400
      8 N            1.8200     0.8220     0.5040 nb         1 LD4      -0.249500
      9 C            4.1950     0.6400     0.2320 ca         1 LD4      -0.295000
     10 C1           3.0520     1.3500     0.6330 ca         1 LD4       0.152900
     11 C2           1.7470    -0.4140    -0.0280 ca         1 LD4       0.381900
     12 C3           4.0080    -0.6430    -0.3080 ca         1 LD4       0.152900
     13 C9          -2.1980     1.6920    -0.7730 c3         1 LD4      -0.065900
     14 N2           0.4930    -0.9910    -0.1740 nu         1 LD4      -0.925100
     15 H1          -0.7580     0.2210     1.0150 h1         1 LD4       0.079700
     16 H2          -2.0100    -2.0550    -0.6210 hc         1 LD4       0.042700
     17 H3          -1.4080    -2.2500     1.0150 hc         1 LD4       0.042700
     18 H4          -3.8460    -1.9930     0.9630 hc         1 LD4       0.039450
     19 H5          -3.0720    -0.7630     1.9410 hc         1 LD4       0.039450
     20 H6          -4.0910    -0.3030    -0.9320 hc         1 LD4       0.037700
     21 H7          -4.9930     0.0480     0.5340 hc         1 LD4       0.037700
     22 H8          -4.1210     2.1450     0.0780 hc         1 LD4       0.037700
     23 H9          -2.9710     1.5420     1.2490 hc         1 LD4       0.037700
     24 H10         -0.3080     1.0080    -1.5120 hc         1 LD4       0.042700
     25 H11         -1.6240    -0.0710    -1.9030 hc         1 LD4       0.042700
     26 H12          5.1890     1.0670     0.3370 ha         1 LD4       0.133000
     27 H13          3.1220     2.3490     1.0610 h4         1 LD4       0.017600
     28 H14          4.8490    -1.2500    -0.6390 h4         1 LD4       0.017600
     29 H15         -2.6390     2.0300    -1.7190 hc         1 LD4       0.039450
     30 H16         -1.6280     2.5460    -0.3860 hc         1 LD4       0.039450
     31 H17          0.4960    -1.9230    -0.5870 hn         1 LD4       0.501000
@<TRIPOS>BOND
     1     1    11 ar  
     2     1    12 ar  
     3     2     3 1   
     4     2     7 1   
     5     2    14 1   
     6     2    15 1   
     7     3     4 1   
     8     3    16 1   
     9     3    17 1   
    10     4     5 1   
    11     4    18 1   
    12     4    19 1   
    13     5     6 1   
    14     5    20 1   
    15     5    21 1   
    16     6    13 1   
    17     6    22 1   
    18     6    23 1   
    19     7    13 1   
    20     7    24 1   
    21     7    25 1   
    22     8    10 ar  
    23     8    11 ar  
    24     9    10 ar  
    25     9    12 ar  
    26     9    26 1   
    27    10    27 1   
    28    11    14 1   
    29    12    28 1   
    30    13    29 1   
    31    13    30 1   
    32    14    31 1   
@<TRIPOS>SUBSTRUCTURE
     1 LD4         1 TEMP              0 ****  ****    0 ROOT
