@<TRIPOS>MOLECULE
LD4
   31    32     1     0     0
SMALL
bcc


@<TRIPOS>ATOM
      1 N1           2.7400    -1.1790    -0.4110 nb         1 LD4      -0.775500
      2 C4          -0.8020    -0.4140     0.1070 c3         1 LD4       0.254500
      3 C5          -1.8340    -1.5220     0.3280 c3         1 LD4      -0.087400
      4 C6          -3.1860    -1.0760     0.8690 c3         1 LD4      -0.065900
      5 C7          -3.9130     0.0160     0.0860 c3         1 LD4      -0.071900
      6 C8          -3.2710     1.3950     0.2340 c3         1 LD4      -0.071900
      7 C10         -1.1880     0.5080    -1.0580 c3         1 LD4      -0.087400
      8 N            1.7110     0.7960     0.4350 nb         1 LD4      -0.775500
      9 C            4.0790     0.6930     0.1970 ca         1 LD4      -0.443600
     10 C1           2.9100     1.3460     0.5470 ca         1 LD4       0.481200
     11 C2           1.6710    -0.4560    -0.0360 ca         1 LD4       0.907900
     12 C3           3.9180    -0.5980    -0.2890 ca         1 LD4       0.481200
     13 C9          -2.0890     1.6880    -0.6980 c3         1 LD4      -0.065900
     14 N2           0.4760    -1.0620    -0.1330 nu         1 LD4      -0.869900
     15 H1          -0.7020     0.1780     1.0220 h1         1 LD4       0.079700
     16 H2          -1.9790    -2.0470    -0.6240 hc         1 LD4       0.042700
     17 H3          -1.4150    -2.2560     1.0230 hc         1 LD4       0.042700
     18 H4          -3.8250    -1.9610     0.9240 hc         1 LD4       0.039450
     19 H5          -3.0640    -0.7310     1.9020 hc         1 LD4       0.039450
     20 H6          -4.0010    -0.2620    -0.9700 hc         1 LD4       0.037700
     21 H7          -4.9370     0.0700     0.4630 hc         1 LD4       0.037700
     22 H8          -4.0260     2.1680     0.0730 hc         1 LD4       0.037700
     23 H9          -2.9570     1.5110     1.2760 hc         1 LD4       0.037700
     24 H10         -0.2800     0.9160    -1.5050 hc         1 LD4       0.042700
     25 H11         -1.6570    -0.1010    -1.8380 hc         1 LD4       0.042700
     26 H12          5.0490     1.1560     0.2930 ha         1 LD4       0.151000
     27 H13          2.9380     2.3600     0.9340 h4         1 LD4       0.017600
     28 H14          4.7790    -1.1850    -0.5910 h4         1 LD4       0.017600
     29 H15         -2.4670     2.1090    -1.6330 hc         1 LD4       0.039450
     30 H16         -1.4780     2.4720    -0.2430 hc         1 LD4       0.039450
     31 H17          0.4750    -1.9710    -0.5690 hn         1 LD4       0.445800
@<TRIPOS>BOND
     1     1    11 ar  
     2     1    12 ar  
     3     2     3 1   
     4     2     7 1   
     5     2    14 1   
     6     2    15 1   
     7     3     4 1   
     8     3    16 1   
     9     3    17 1   
    10     4     5 1   
    11     4    18 1   
    12     4    19 1   
    13     5     6 1   
    14     5    20 1   
    15     5    21 1   
    16     6    13 1   
    17     6    22 1   
    18     6    23 1   
    19     7    13 1   
    20     7    24 1   
    21     7    25 1   
    22     8    10 ar  
    23     8    11 ar  
    24     9    10 ar  
    25     9    12 ar  
    26     9    26 1   
    27    10    27 1   
    28    11    14 1   
    29    12    28 1   
    30    13    29 1   
    31    13    30 1   
    32    14    31 1   
@<TRIPOS>SUBSTRUCTURE
     1 LD4         1 TEMP              0 ****  ****    0 ROOT
