@<TRIPOS>MOLECULE
LD6
   45    47     1     0     0
SMALL
No Charge or Current Charge


@<TRIPOS>ATOM
      1 CAY         -3.8840    -0.3710    -0.3410 ca         1 LD6      -0.133000
      2 CAZ         -5.1090     0.3150    -0.3360 ca         1 LD6       0.177000
      3 FBB         -5.8960     0.2910    -1.4330 f          1 LD6      -0.172000
      4 CBA         -5.5200     1.0250     0.8020 ca         1 LD6      -0.142000
      5 CAX         -4.7020     1.0470     1.9450 ca         1 LD6      -0.080000
      6 CAW         -3.4740     0.3600     1.9430 ca         1 LD6      -0.130000
      7 CAV         -3.0550    -0.3500     0.7990 ca         1 LD6      -0.102300
      8 CAU         -1.7180    -1.0880     0.7960 c3         1 LD6       0.130300
      9 NAQ         -0.8380    -0.7340    -0.3580 n          1 LD6      -0.336000
     10 CAR         -0.1770     0.4880    -0.4320 cc         1 LD6       0.414600
     11 NAS         -0.4560     1.3910     0.5380 nv         1 LD6      -0.944000
     12 CAP         -0.6580    -1.6950    -1.3650 c          1 LD6       0.628000
     13 OAO         -1.2170    -2.7790    -1.3750 o          1 LD6      -0.552000
     14 NAG          0.1890    -1.3650    -2.3640 ns         1 LD6      -0.465500
     15 CAH          0.9010    -0.2280    -2.5270 c          1 LD6       0.605200
     16 OAA          1.6440    -0.0900    -3.4860 o          1 LD6      -0.540000
     17 CAI          0.6950     0.7920    -1.4610 cd         1 LD6      -0.270200
     18 NAJ          1.3920     2.0440    -1.4830 nh         1 LD6      -0.575300
     19 CAB          1.2830     2.9270    -2.6590 c3         1 LD6       0.194100
     20 SAK          2.6430     2.4600    -0.3750 sy         1 LD6       1.150600
     21 OAT          3.7430     3.0420    -1.1540 o          1 LD6      -0.547500
     22 OAC          2.0030     3.1950     0.7240 o          1 LD6      -0.547500
     23 CAL          3.1310     0.8170     0.1930 ca         1 LD6      -0.280500
     24 CAM          3.9460     0.0100    -0.6270 ca         1 LD6      -0.007000
     25 CAN          4.3000    -1.2840    -0.2090 ca         1 LD6      -0.128000
     26 CAF          3.8420    -1.7780     1.0250 ca         1 LD6      -0.052000
     27 CAE          3.0280    -0.9760     1.8420 ca         1 LD6      -0.128000
     28 CAD          2.6710     0.3200     1.4300 ca         1 LD6      -0.007000
     29 HAY         -3.5840    -0.9170    -1.2320 ha         1 LD6       0.142000
     30 HBA         -6.4700     1.5530     0.7980 ha         1 LD6       0.138000
     31 HAX         -5.0190     1.5930     2.8310 ha         1 LD6       0.124000
     32 HAW         -2.8520     0.3800     2.8360 ha         1 LD6       0.120000
     33 HAU1        -1.1740    -0.8720     1.7250 h1         1 LD6       0.088700
     34 HAU2        -1.9190    -2.1660     0.8190 h1         1 LD6       0.088700
     35 HAS1        -1.3950     1.3930     0.9170 hn         1 LD6       0.512500
     36 HAS2        -0.0270     2.3030     0.4160 hn         1 LD6       0.512500
     37 HAG          0.3130    -2.0640    -3.0780 hn         1 LD6       0.348500
     38 HAB1         1.2940     3.9830    -2.3560 h1         1 LD6       0.053700
     39 HAB2         2.1160     2.7520    -3.3510 h1         1 LD6       0.053700
     40 HAB3         0.3440     2.7370    -3.1940 h1         1 LD6       0.053700
     41 HAM          4.2950     0.3780    -1.5900 ha         1 LD6       0.130500
     42 HAD          2.0310     0.9250     2.0690 ha         1 LD6       0.130500
     43 HAN          4.9270    -1.9060    -0.8440 ha         1 LD6       0.115500
     44 HAF          4.1160    -2.7810     1.3450 ha         1 LD6       0.113000
     45 HAE          2.6700    -1.3590     2.7940 ha         1 LD6       0.115500
@<TRIPOS>BOND
     1     1     2 ar  
     2     1     7 ar  
     3     1    29 1   
     4     2     3 1   
     5     2     4 ar  
     6     4     5 ar  
     7     4    30 1   
     8     5     6 ar  
     9     5    31 1   
    10     6     7 ar  
    11     6    32 1   
    12     7     8 1   
    13     8     9 1   
    14     8    33 1   
    15     8    34 1   
    16     9    10 1   
    17     9    12 1   
    18    10    11 1   
    19    10    17 2   
    20    11    35 1   
    21    11    36 1   
    22    12    13 2   
    23    12    14 1   
    24    14    15 1   
    25    14    37 1   
    26    15    16 2   
    27    15    17 1   
    28    17    18 1   
    29    18    19 1   
    30    18    20 1   
    31    19    38 1   
    32    19    39 1   
    33    19    40 1   
    34    20    21 2   
    35    20    22 2   
    36    20    23 1   
    37    23    24 ar  
    38    23    28 ar  
    39    24    25 ar  
    40    24    41 1   
    41    25    26 ar  
    42    25    43 1   
    43    26    27 ar  
    44    26    44 1   
    45    27    28 ar  
    46    27    45 1   
    47    28    42 1   
@<TRIPOS>SUBSTRUCTURE
     1 LD6         1 TEMP              0 ****  ****    0 ROOT
