@<TRIPOS>MOLECULE
LD6
   45    47     1     0     0
SMALL
bcc


@<TRIPOS>ATOM
      1 CAY         -4.0810     0.0360    -0.5400 ca         1 LD6      -0.151000
      2 CAZ         -5.2210     0.6750    -0.9850 ca         1 LD6       0.141900
      3 FBB         -5.5730     0.5360    -2.2720 f          1 LD6      -0.136900
      4 CBA         -6.0130     1.4500    -0.1580 ca         1 LD6      -0.160000
      5 CAX         -5.6340     1.5830     1.1690 ca         1 LD6      -0.098000
      6 CAW         -4.4890     0.9550     1.6440 ca         1 LD6      -0.148000
      7 CAV         -3.7100     0.1790     0.7930 ca         1 LD6      -0.102300
      8 CAU         -2.4950    -0.5280     1.3430 c3         1 LD6       0.130300
      9 NAQ         -1.3740    -0.5800     0.4120 n          1 LD6      -0.403000
     10 CAR         -0.6080     0.5400     0.1850 cc         1 LD6       0.414600
     11 NAS         -0.9820     1.6790     0.7630 nv         1 LD6      -0.833600
     12 CAP         -1.0910    -1.7970    -0.1950 c          1 LD6       0.837500
     13 OAO         -1.7830    -2.7780    -0.0210 o          1 LD6      -0.627500
     14 NAG          0.0050    -1.8090    -0.9960 ns         1 LD6      -0.599500
     15 CAH          0.8670    -0.7510    -1.2710 c          1 LD6       0.747700
     16 OAA          1.7930    -0.9110    -2.0480 o          1 LD6      -0.615500
     17 CAI          0.5310     0.4610    -0.5990 cd         1 LD6      -0.270200
     18 NAJ          1.2760     1.6380    -0.8300 nh         1 LD6      -0.575300
     19 CAB          1.3770     2.1540    -2.1960 c3         1 LD6       0.194100
     20 SAK          2.5660     1.8840     0.1980 sy         1 LD6       1.292200
     21 OAT          3.1970     3.1270    -0.2200 o          1 LD6      -0.618300
     22 OAC          2.0560     1.7610     1.5530 o          1 LD6      -0.618300
     23 CAL          3.6980     0.5550    -0.0740 ca         1 LD6      -0.280500
     24 CAM          4.6310     0.6620    -1.0980 ca         1 LD6      -0.025000
     25 CAN          5.4800    -0.4040    -1.3440 ca         1 LD6      -0.146000
     26 CAF          5.3940    -1.5570    -0.5740 ca         1 LD6      -0.070000
     27 CAE          4.4630    -1.6460     0.4520 ca         1 LD6      -0.146000
     28 CAD          3.6080    -0.5860     0.7110 ca         1 LD6      -0.025000
     29 HAY         -3.5010    -0.5600    -1.2330 ha         1 LD6       0.160000
     30 HBA         -6.8980     1.9380    -0.5420 ha         1 LD6       0.156000
     31 HAX         -6.2310     2.1890     1.8370 ha         1 LD6       0.142000
     32 HAW         -4.2020     1.0720     2.6810 ha         1 LD6       0.138000
     33 HAU1        -2.1650    -0.0570     2.2690 h1         1 LD6       0.088700
     34 HAU2        -2.7530    -1.5530     1.5970 h1         1 LD6       0.088700
     35 HAS1        -1.9040     1.8290     1.1350 hn         1 LD6       0.457300
     36 HAS2        -0.4510     2.5070     0.5460 hn         1 LD6       0.457300
     37 HAG          0.1990    -2.6880    -1.4610 hn         1 LD6       0.348500
     38 HAB1         1.5750     3.2220    -2.1830 h1         1 LD6       0.053700
     39 HAB2         2.1390     1.6480    -2.7890 h1         1 LD6       0.053700
     40 HAB3         0.4110     1.9960    -2.6690 h1         1 LD6       0.053700
     41 HAM          4.7030     1.5620    -1.6930 ha         1 LD6       0.148500
     42 HAD          2.8880    -0.6540     1.5140 ha         1 LD6       0.148500
     43 HAN          6.2130    -0.3330    -2.1360 ha         1 LD6       0.133500
     44 HAF          6.0600    -2.3870    -0.7720 ha         1 LD6       0.131000
     45 HAE          4.4030    -2.5410     1.0560 ha         1 LD6       0.133500
@<TRIPOS>BOND
     1     1     2 ar  
     2     1     7 ar  
     3     1    29 1   
     4     2     3 1   
     5     2     4 ar  
     6     4     5 ar  
     7     4    30 1   
     8     5     6 ar  
     9     5    31 1   
    10     6     7 ar  
    11     6    32 1   
    12     7     8 1   
    13     8     9 1   
    14     8    33 1   
    15     8    34 1   
    16     9    10 1   
    17     9    12 1   
    18    10    11 1   
    19    10    17 2   
    20    11    35 1   
    21    11    36 1   
    22    12    13 2   
    23    12    14 1   
    24    14    15 1   
    25    14    37 1   
    26    15    16 2   
    27    15    17 1   
    28    17    18 1   
    29    18    19 1   
    30    18    20 1   
    31    19    38 1   
    32    19    39 1   
    33    19    40 1   
    34    20    21 2   
    35    20    22 2   
    36    20    23 1   
    37    23    24 ar  
    38    23    28 ar  
    39    24    25 ar  
    40    24    41 1   
    41    25    26 ar  
    42    25    43 1   
    43    26    27 ar  
    44    26    44 1   
    45    27    28 ar  
    46    27    45 1   
    47    28    42 1   
@<TRIPOS>SUBSTRUCTURE
     1 LD6         1 TEMP              0 ****  ****    0 ROOT
