@<TRIPOS>MOLECULE
LD7
   30    31     1     0     0
SMALL
No Charge or Current Charge


@<TRIPOS>ATOM
      1 N1           3.2600    -1.5260     0.3230 nc         1 LD7      -0.366300
      2 N3          -0.1010     0.9160    -0.0120 ns         1 LD7      -0.493900
      3 C4           2.2920     0.4690     0.1260 cc         1 LD7       0.417500
      4 C5           1.1700     1.4710    -0.0010 c          1 LD7       0.534600
      5 C6          -1.3360     1.6870    -0.1260 c3         1 LD7       0.154300
      6 C7          -2.5480     0.7710    -0.1070 ca         1 LD7      -0.139300
      7 C8          -3.0580     0.2450    -1.3110 ca         1 LD7      -0.065000
      8 C10         -4.7850    -0.9340    -0.0700 ca         1 LD7       0.185000
      9 C1           6.2770    -0.9900    -1.0240 c3         1 LD7      -0.087100
     10 C11         -4.2820    -0.4160     1.1330 ca         1 LD7      -0.154500
     11 C12         -3.1640     0.4360     1.1160 ca         1 LD7      -0.065000
     12 C2           5.6230    -0.7870     0.3600 c3         1 LD7      -0.106700
     13 C3           4.1400    -0.5410     0.2840 cd         1 LD7       0.552300
     14 C9          -4.1770    -0.6070    -1.2910 ca         1 LD7      -0.154500
     15 F1          -5.8600    -1.7520    -0.0520 f          1 LD7      -0.174000
     16 N2           3.5980     0.7150     0.1620 nd         1 LD7      -0.656000
     17 O1           2.0160    -0.8670     0.2190 os         1 LD7      -0.095700
     18 O2           1.3240     2.6870    -0.0900 o          1 LD7      -0.541100
     19 H1          -0.1730    -0.0930     0.0640 hn         1 LD7       0.339500
     20 H2          -1.3920     2.4000     0.7080 h1         1 LD7       0.063700
     21 H3          -1.3160     2.2620    -1.0620 h1         1 LD7       0.063700
     22 H4          -2.5870     0.4940    -2.2600 ha         1 LD7       0.122000
     23 H5           7.3550    -1.1630    -0.9170 hc         1 LD7       0.045033
     24 H6           5.8400    -1.8560    -1.5360 hc         1 LD7       0.045033
     25 H7           6.1320    -0.1050    -1.6550 hc         1 LD7       0.045033
     26 H8          -4.7590    -0.6760     2.0750 ha         1 LD7       0.136500
     27 H9          -2.7750     0.8340     2.0520 ha         1 LD7       0.122000
     28 H10          5.8200    -1.6680     0.9820 hc         1 LD7       0.068200
     29 H11          6.1080     0.0580     0.8630 hc         1 LD7       0.068200
     30 H12         -4.5720    -1.0130    -2.2190 ha         1 LD7       0.136500
@<TRIPOS>BOND
     1     1    13 2   
     2     1    17 1   
     3     2     4 1   
     4     2     5 1   
     5     2    19 1   
     6     3     4 1   
     7     3    16 2   
     8     3    17 1   
     9     4    18 2   
    10     5     6 1   
    11     5    20 1   
    12     5    21 1   
    13     6     7 ar  
    14     6    11 ar  
    15     7    14 ar  
    16     7    22 1   
    17     8    10 ar  
    18     8    14 ar  
    19     8    15 1   
    20     9    12 1   
    21     9    23 1   
    22     9    24 1   
    23     9    25 1   
    24    10    11 ar  
    25    10    26 1   
    26    11    27 1   
    27    12    13 1   
    28    12    28 1   
    29    12    29 1   
    30    13    16 1   
    31    14    30 1   
@<TRIPOS>SUBSTRUCTURE
     1 LD7         1 TEMP              0 ****  ****    0 ROOT
