@<TRIPOS>MOLECULE
LD7
   30    31     1     0     0
SMALL
bcc


@<TRIPOS>ATOM
      1 N1           3.1970    -1.7060     0.3460 nc         1 LD7      -0.366300
      2 N3          -0.0680     0.6950    -0.2740 ns         1 LD7      -0.560900
      3 C4           2.2530     0.2210     0.0890 cc         1 LD7       0.461900
      4 C5           1.1470     1.2140    -0.0900 c          1 LD7       0.601600
      5 C6          -1.2370     1.5320    -0.4810 c3         1 LD7       0.154300
      6 C7          -2.4920     0.7370    -0.2540 ca         1 LD7      -0.139300
      7 C8          -3.2460     0.2760    -1.3270 ca         1 LD7      -0.083000
      8 C10         -4.7860    -0.7410     0.1730 ca         1 LD7       0.149900
      9 C1           6.2800    -0.4910    -0.8120 c3         1 LD7      -0.087100
     10 C11         -4.0590    -0.3030     1.2660 ca         1 LD7      -0.172500
     11 C12         -2.9090     0.4370     1.0400 ca         1 LD7      -0.083000
     12 C2           5.5330    -0.9670     0.4310 c3         1 LD7      -0.106700
     13 C3           4.0700    -0.7440     0.3170 cd         1 LD7       0.552300
     14 C9          -4.4020    -0.4660    -1.1230 ca         1 LD7      -0.172500
     15 F1          -5.9040    -1.4540     0.3830 f          1 LD7      -0.138900
     16 N2           3.5080     0.4920     0.1550 nd         1 LD7      -0.656000
     17 O1           1.9950    -1.0710     0.1970 os         1 LD7      -0.140100
     18 O2           1.4100     2.4010    -0.0540 o          1 LD7      -0.541100
     19 H1          -0.1860    -0.3030    -0.3690 hn         1 LD7       0.339500
     20 H2          -1.1920     2.3730     0.2120 h1         1 LD7       0.063700
     21 H3          -1.2280     1.9480    -1.4920 h1         1 LD7       0.063700
     22 H4          -2.9340     0.4970    -2.3400 ha         1 LD7       0.140000
     23 H5           7.3480    -0.6670    -0.6980 hc         1 LD7       0.045033
     24 H6           5.9440    -1.0220    -1.7020 hc         1 LD7       0.045033
     25 H7           6.1320     0.5760    -0.9780 hc         1 LD7       0.045033
     26 H8          -4.3880    -0.5300     2.2710 ha         1 LD7       0.154500
     27 H9          -2.3350     0.7890     1.8880 ha         1 LD7       0.140000
     28 H10          5.7150    -2.0270     0.6070 hc         1 LD7       0.068200
     29 H11          5.8950    -0.4280     1.3100 hc         1 LD7       0.068200
     30 H12         -4.9920    -0.8180    -1.9590 ha         1 LD7       0.154500
@<TRIPOS>BOND
     1     1    13 2   
     2     1    17 1   
     3     2     4 1   
     4     2     5 1   
     5     2    19 1   
     6     3     4 1   
     7     3    16 2   
     8     3    17 1   
     9     4    18 2   
    10     5     6 1   
    11     5    20 1   
    12     5    21 1   
    13     6     7 ar  
    14     6    11 ar  
    15     7    14 ar  
    16     7    22 1   
    17     8    10 ar  
    18     8    14 ar  
    19     8    15 1   
    20     9    12 1   
    21     9    23 1   
    22     9    24 1   
    23     9    25 1   
    24    10    11 ar  
    25    10    26 1   
    26    11    27 1   
    27    12    13 1   
    28    12    28 1   
    29    12    29 1   
    30    13    16 1   
    31    14    30 1   
@<TRIPOS>SUBSTRUCTURE
     1 LD7         1 TEMP              0 ****  ****    0 ROOT
