@<TRIPOS>MOLECULE
LD8
   18    18     1     0     0
SMALL
abcg2


@<TRIPOS>ATOM
      1 O01         -2.5190    -0.1030     0.0290 os         1 LD8      -0.449300
      2 O02          1.8610    -1.1250    -0.0320 os         1 LD8      -0.434300
      3 N03         -0.2990    -0.6200    -0.0050 nb         1 LD8      -0.287000
      4 N04          1.3310     1.0950     0.0080 nb         1 LD8      -0.280000
      5 C05         -1.2540     0.2820     0.0200 ca         1 LD8       0.384300
      6 C06         -0.9860     1.6590     0.0390 ca         1 LD8      -0.280000
      7 C07          0.9480    -0.1630    -0.0090 ca         1 LD8       0.390300
      8 C08          0.3420     1.9940     0.0310 ca         1 LD8       0.159900
      9 C09         -2.7980    -1.4950     0.0140 c3         1 LD8       0.156900
     10 C10          3.2270    -0.7490    -0.0320 c3         1 LD8       0.162900
     11 H1          -1.7700     2.3990     0.0610 ha         1 LD8       0.149000
     12 H2           0.6420     3.0350     0.0460 h4         1 LD8       0.024100
     13 H3          -2.3800    -2.0010     0.8840 h1         1 LD8       0.051700
     14 H4          -3.8810    -1.5790     0.0320 h1         1 LD8       0.051700
     15 H5          -2.4120    -1.9750    -0.8860 h1         1 LD8       0.051700
     16 H6           3.4940    -0.1890     0.8650 h1         1 LD8       0.049700
     17 H7           3.7890    -1.6790    -0.0540 h1         1 LD8       0.049700
     18 H8           3.4850    -0.1490    -0.9050 h1         1 LD8       0.049700
@<TRIPOS>BOND
     1     1     5 1   
     2     1     9 1   
     3     2     7 1   
     4     2    10 1   
     5     3     5 ar  
     6     3     7 ar  
     7     4     7 ar  
     8     4     8 ar  
     9     5     6 ar  
    10     6     8 ar  
    11     6    11 1   
    12     8    12 1   
    13     9    13 1   
    14     9    14 1   
    15     9    15 1   
    16    10    16 1   
    17    10    17 1   
    18    10    18 1   
@<TRIPOS>SUBSTRUCTURE
     1 LD8         1 TEMP              0 ****  ****    0 ROOT
