@<TRIPOS>MOLECULE
LD8
   18    18     1     0     0
SMALL
No Charge or Current Charge


@<TRIPOS>ATOM
      1 O01         -2.5940    -0.1100     0.0300 os         1 LD8      -0.449300
      2 O02          1.9780    -1.1240    -0.0280 os         1 LD8      -0.434300
      3 N03         -0.2770    -0.6270     0.0010 nb         1 LD8      -0.287000
      4 N04          1.3370     1.1430     0.0110 nb         1 LD8      -0.280000
      5 C05         -1.2740     0.2810     0.0240 ca         1 LD8       0.384300
      6 C06         -1.0000     1.6520     0.0410 ca         1 LD8      -0.280000
      7 C07          0.9880    -0.1650    -0.0040 ca         1 LD8       0.390300
      8 C08          0.3420     2.0480     0.0340 ca         1 LD8       0.159900
      9 C09         -2.9580    -1.5060     0.0130 c3         1 LD8       0.156900
     10 C10          3.3760    -0.7670    -0.0360 c3         1 LD8       0.162900
     11 H1          -1.8030     2.3820     0.0590 ha         1 LD8       0.149000
     12 H2           0.6270     3.0990     0.0470 h4         1 LD8       0.024100
     13 H3          -2.5580    -2.0260     0.8930 h1         1 LD8       0.051700
     14 H4          -4.0500    -1.6160     0.0220 h1         1 LD8       0.051700
     15 H5          -2.5740    -2.0000    -0.8880 h1         1 LD8       0.051700
     16 H6           3.6380    -0.1920     0.8620 h1         1 LD8       0.049700
     17 H7           4.0000    -1.6690    -0.0550 h1         1 LD8       0.049700
     18 H8           3.6220    -0.1660    -0.9210 h1         1 LD8       0.049700
@<TRIPOS>BOND
     1     1     5 1   
     2     1     9 1   
     3     2     7 1   
     4     2    10 1   
     5     3     5 ar  
     6     3     7 ar  
     7     4     7 ar  
     8     4     8 ar  
     9     5     6 ar  
    10     6     8 ar  
    11     6    11 1   
    12     8    12 1   
    13     9    13 1   
    14     9    14 1   
    15     9    15 1   
    16    10    16 1   
    17    10    17 1   
    18    10    18 1   
@<TRIPOS>SUBSTRUCTURE
     1 LD8         1 TEMP              0 ****  ****    0 ROOT
