@<TRIPOS>MOLECULE
LD9
   32    34     1     0     0
SMALL
bcc


@<TRIPOS>ATOM
      1 C02         -4.2350    -1.5580    -0.0580 c          1 LD9       0.933600
      2 C04         -4.1660    -0.1970    -0.7900 c3         1 LD9      -0.171200
      3 C05         -3.1030     0.7250    -0.3160 cc         1 LD9      -0.015400
      4 C06         -3.2510     1.9430     0.2420 cd         1 LD9      -0.095900
      5 C08         -1.0950     1.6870     0.1100 ca         1 LD9       0.081100
      6 C09          0.2700     1.8880     0.2050 ca         1 LD9      -0.202000
      7 C10          1.0950     0.8760    -0.2840 ca         1 LD9       0.168600
      8 C12          3.4670     0.1420    -0.0520 ca         1 LD9       0.202600
      9 C13          4.7860     0.4910    -0.3710 ca         1 LD9      -0.198000
     10 C14          5.8270    -0.3930    -0.1440 ca         1 LD9      -0.094000
     11 C15          5.5860    -1.6520     0.3920 ca         1 LD9      -0.187000
     12 C16          4.2810    -2.0010     0.7120 ca         1 LD9      -0.094000
     13 C17          3.2300    -1.1190     0.5040 ca         1 LD9      -0.198000
     14 C18          0.5280    -0.2910    -0.8380 ca         1 LD9      -0.211000
     15 C19         -0.8400    -0.4740    -0.8860 ca         1 LD9      -0.012000
     16 C20         -1.6770     0.5340    -0.4120 ca         1 LD9      -0.103800
     17 N11          2.4710     1.0770    -0.2670 nu         1 LD9      -0.665000
     18 O01         -5.1020    -2.3460    -0.4860 o          1 LD9      -0.831800
     19 O03         -3.4410    -1.7520     0.8780 o          1 LD9      -0.831800
     20 O07         -2.0520     2.5470     0.5150 os         1 LD9      -0.199200
     21 H1          -4.0270    -0.3940    -1.8590 hc         1 LD9       0.033700
     22 H2          -5.1420     0.2910    -0.7110 hc         1 LD9       0.033700
     23 H3          -4.1320     2.5100     0.5020 h4         1 LD9       0.173000
     24 H4           0.6850     2.7880     0.6400 ha         1 LD9       0.130000
     25 H5           4.9910     1.4660    -0.7980 ha         1 LD9       0.138500
     26 H6           6.8360    -0.0930    -0.3960 ha         1 LD9       0.121000
     27 H7           6.4000    -2.3450     0.5610 ha         1 LD9       0.122000
     28 H8           4.0690    -2.9700     1.1460 ha         1 LD9       0.121000
     29 H9           2.2310    -1.4140     0.7930 ha         1 LD9       0.138500
     30 H10          1.1750    -1.0560    -1.2470 ha         1 LD9       0.130000
     31 H11         -1.2470    -1.3820    -1.3090 ha         1 LD9       0.156000
     32 H12          2.7750     2.0370    -0.2960 hn         1 LD9       0.427800
@<TRIPOS>BOND
     1     1     2 1   
     2     1    18 1   
     3     1    19 1   
     4     2     3 1   
     5     2    21 1   
     6     2    22 1   
     7     3     4 2   
     8     3    16 1   
     9     4    20 1   
    10     4    23 1   
    11     5     6 ar  
    12     5    16 ar  
    13     5    20 1   
    14     6     7 ar  
    15     6    24 1   
    16     7    14 ar  
    17     7    17 1   
    18     8     9 ar  
    19     8    13 ar  
    20     8    17 1   
    21     9    10 ar  
    22     9    25 1   
    23    10    11 ar  
    24    10    26 1   
    25    11    12 ar  
    26    11    27 1   
    27    12    13 ar  
    28    12    28 1   
    29    13    29 1   
    30    14    15 ar  
    31    14    30 1   
    32    15    16 ar  
    33    15    31 1   
    34    17    32 1   
@<TRIPOS>SUBSTRUCTURE
     1 LD9         1 TEMP              0 ****  ****    0 ROOT
