@<TRIPOS>MOLECULE
LD9
   32    34     1     0     0
SMALL
No Charge or Current Charge


@<TRIPOS>ATOM
      1 C02         -4.4700    -1.3460     0.1390 c          1 LD9       0.723000
      2 C04         -4.1900    -0.2170    -0.8640 c3         1 LD9      -0.171200
      3 C05         -3.1440     0.7420    -0.3570 cc         1 LD9      -0.015400
      4 C06         -3.3270     1.9890     0.2300 cd         1 LD9      -0.145900
      5 C08         -1.1330     1.7010     0.1710 ca         1 LD9       0.081100
      6 C09          0.2480     1.8680     0.2940 ca         1 LD9      -0.184000
      7 C10          1.0750     0.8230    -0.1630 ca         1 LD9       0.307000
      8 C12          3.5240     0.0760    -0.0140 ca         1 LD9       0.341000
      9 C13          4.8030     0.5180    -0.3920 ca         1 LD9      -0.180000
     10 C14          5.9040    -0.3550    -0.3400 ca         1 LD9      -0.076000
     11 C15          5.7280    -1.6760     0.1040 ca         1 LD9      -0.169000
     12 C16          4.4560    -2.1200     0.5020 ca         1 LD9      -0.076000
     13 C17          3.3590    -1.2430     0.4460 ca         1 LD9      -0.180000
     14 C18          0.4980    -0.3310    -0.7500 ca         1 LD9      -0.193000
     15 C19         -0.9040    -0.4670    -0.8610 ca         1 LD9       0.006000
     16 C20         -1.7000     0.5800    -0.3820 ca         1 LD9      -0.103800
     17 N11          2.4580     0.9750    -0.0640 nu         1 LD9      -0.997000
     18 O01         -3.7740    -2.3490     0.0870 o          1 LD9      -0.726500
     19 O03         -5.2950    -1.1430     1.0180 o          1 LD9      -0.726500
     20 O07         -2.1170     2.5600     0.5450 os         1 LD9      -0.199200
     21 H1          -3.7960    -0.6360    -1.7970 hc         1 LD9       0.033700
     22 H2          -5.1000     0.3770    -1.0140 hc         1 LD9       0.033700
     23 H3          -4.2320     2.5450     0.4590 h4         1 LD9       0.223000
     24 H4           0.6620     2.7680     0.7370 ha         1 LD9       0.112000
     25 H5           4.9450     1.5390    -0.7370 ha         1 LD9       0.120500
     26 H6           6.8900    -0.0080    -0.6410 ha         1 LD9       0.103000
     27 H7           6.5790    -2.3530     0.1470 ha         1 LD9       0.104000
     28 H8           4.3220    -3.1400     0.8580 ha         1 LD9       0.103000
     29 H9           2.3860    -1.5890     0.7810 ha         1 LD9       0.120500
     30 H10          1.1330    -1.1200    -1.1400 ha         1 LD9       0.112000
     31 H11         -1.3490    -1.3530    -1.3090 ha         1 LD9       0.138000
     32 H12          2.7540     1.9500    -0.0120 hn         1 LD9       0.483000
@<TRIPOS>BOND
     1     1     2 1   
     2     1    18 1   
     3     1    19 1   
     4     2     3 1   
     5     2    21 1   
     6     2    22 1   
     7     3     4 2   
     8     3    16 1   
     9     4    20 1   
    10     4    23 1   
    11     5     6 ar  
    12     5    16 ar  
    13     5    20 1   
    14     6     7 ar  
    15     6    24 1   
    16     7    14 ar  
    17     7    17 1   
    18     8     9 ar  
    19     8    13 ar  
    20     8    17 1   
    21     9    10 ar  
    22     9    25 1   
    23    10    11 ar  
    24    10    26 1   
    25    11    12 ar  
    26    11    27 1   
    27    12    13 ar  
    28    12    28 1   
    29    13    29 1   
    30    14    15 ar  
    31    14    30 1   
    32    15    16 ar  
    33    15    31 1   
    34    17    32 1   
@<TRIPOS>SUBSTRUCTURE
     1 LD9         1 TEMP              0 ****  ****    0 ROOT
