@<TRIPOS>MOLECULE
LDA
   47    46     1     0     0
SMALL
No Charge or Current Charge


@<TRIPOS>ATOM
      1 N1          60.7040   103.0750    56.8750 n4         1 LDA      -0.123000
      2 O1          60.4130   102.4840    58.0970 o          1 LDA      -0.662000
      3 CM1         59.4930   103.8770    56.3940 c3         1 LDA       0.072400
      4 CM2         61.8890   104.0340    57.0270 c3         1 LDA       0.072400
      5 C1          61.0280   102.0050    55.8170 c3         1 LDA       0.097600
      6 C2          62.2170   101.0560    56.0870 c3         1 LDA      -0.081400
      7 C3          62.4090   100.0190    54.9610 c3         1 LDA      -0.076400
      8 C4          63.5940    99.0620    55.2160 c3         1 LDA      -0.075400
      9 C5          63.7820    98.0220    54.0860 c3         1 LDA      -0.072400
     10 C6          65.0140    97.1010    54.2600 c3         1 LDA      -0.072400
     11 C7          64.9380    96.1530    55.4800 c3         1 LDA      -0.077400
     12 C8          66.1430    95.1900    55.5690 c3         1 LDA      -0.075400
     13 C9          66.0700    94.2460    56.7920 c3         1 LDA      -0.073400
     14 C10         67.2150    93.2080    56.8700 c3         1 LDA      -0.073400
     15 C11         68.6190    93.8160    57.0930 c3         1 LDA      -0.076400
     16 C12         69.7190    92.7490    57.2530 c3         1 LDA      -0.089100
     17 HM11        59.7330   104.3410    55.4360 hx         1 LDA       0.062033
     18 HM12        58.6450   103.2000    56.2780 hx         1 LDA       0.062033
     19 HM13        59.2600   104.6450    57.1330 hx         1 LDA       0.062033
     20 HM21        62.1110   104.4810    56.0560 hx         1 LDA       0.062033
     21 HM22        61.6240   104.8130    57.7450 hx         1 LDA       0.062033
     22 HM23        62.7540   103.4760    57.3880 hx         1 LDA       0.062033
     23 H11         60.1280   101.4000    55.6930 hx         1 LDA       0.055700
     24 H12         61.2110   102.5300    54.8770 hx         1 LDA       0.055700
     25 H21         63.1360   101.6430    56.1970 hc         1 LDA       0.064700
     26 H22         62.0500   100.5340    57.0380 hc         1 LDA       0.064700
     27 H31         61.4880    99.4320    54.8530 hc         1 LDA       0.035700
     28 H32         62.5670   100.5450    54.0120 hc         1 LDA       0.035700
     29 H41         64.5150    99.6490    55.3220 hc         1 LDA       0.042200
     30 H42         63.4310    98.5450    56.1690 hc         1 LDA       0.042200
     31 H51         62.8790    97.4050    54.0060 hc         1 LDA       0.036700
     32 H52         63.8830    98.5540    53.1320 hc         1 LDA       0.036700
     33 H61         65.1220    96.4970    53.3510 hc         1 LDA       0.037200
     34 H62         65.9180    97.7180    54.3340 hc         1 LDA       0.037200
     35 H71         64.8920    96.7430    56.4030 hc         1 LDA       0.038200
     36 H72         64.0120    95.5670    55.4250 hc         1 LDA       0.038200
     37 H81         66.1930    94.5890    54.6520 hc         1 LDA       0.036700
     38 H82         67.0640    95.7830    55.6160 hc         1 LDA       0.036700
     39 H91         66.0610    94.8430    57.7130 hc         1 LDA       0.037200
     40 H92         65.1170    93.7040    56.7620 hc         1 LDA       0.037200
     41 H101        66.9970    92.5160    57.6930 hc         1 LDA       0.037200
     42 H102        67.2210    92.6070    55.9520 hc         1 LDA       0.037200
     43 H111        68.8830    94.4630    56.2480 hc         1 LDA       0.037200
     44 H112        68.6040    94.4490    57.9900 hc         1 LDA       0.037200
     45 H121        70.6940    93.2250    57.4070 hc         1 LDA       0.030367
     46 H122        69.5120    92.1040    58.1160 hc         1 LDA       0.030367
     47 H123        69.7810    92.1190    56.3570 hc         1 LDA       0.030367
@<TRIPOS>BOND
     1     1     2 1   
     2     1     3 1   
     3     1     4 1   
     4     1     5 1   
     5     3    17 1   
     6     3    18 1   
     7     3    19 1   
     8     4    20 1   
     9     4    21 1   
    10     4    22 1   
    11     5     6 1   
    12     5    23 1   
    13     5    24 1   
    14     6     7 1   
    15     6    25 1   
    16     6    26 1   
    17     7     8 1   
    18     7    27 1   
    19     7    28 1   
    20     8     9 1   
    21     8    29 1   
    22     8    30 1   
    23     9    10 1   
    24     9    31 1   
    25     9    32 1   
    26    10    11 1   
    27    10    33 1   
    28    10    34 1   
    29    11    12 1   
    30    11    35 1   
    31    11    36 1   
    32    12    13 1   
    33    12    37 1   
    34    12    38 1   
    35    13    14 1   
    36    13    39 1   
    37    13    40 1   
    38    14    15 1   
    39    14    41 1   
    40    14    42 1   
    41    15    16 1   
    42    15    43 1   
    43    15    44 1   
    44    16    45 1   
    45    16    46 1   
    46    16    47 1   
@<TRIPOS>SUBSTRUCTURE
     1 LDA         1 TEMP              0 ****  ****    0 ROOT
