@<TRIPOS>MOLECULE
LDA
   47    46     1     0     0
SMALL
abcg2


@<TRIPOS>ATOM
      1 N1          60.9590   102.9550    56.9360 n4         1 LDA      -0.123000
      2 O1          60.9040   102.3780    58.1590 o          1 LDA      -0.662000
      3 CM1         59.6890   103.6770    56.6640 c3         1 LDA       0.072400
      4 CM2         62.0690   103.9430    56.8890 c3         1 LDA       0.072400
      5 C1          61.1360   101.9180    55.8620 c3         1 LDA       0.097600
      6 C2          62.3510   101.0330    56.0470 c3         1 LDA      -0.081400
      7 C3          62.4120    99.9630    54.9630 c3         1 LDA      -0.076400
      8 C4          63.6030    99.0290    55.1310 c3         1 LDA      -0.075400
      9 C5          63.7000    97.9840    54.0240 c3         1 LDA      -0.072400
     10 C6          64.9060    97.0560    54.1500 c3         1 LDA      -0.072400
     11 C7          64.8240    96.0740    55.3130 c3         1 LDA      -0.077400
     12 C8          66.0580    95.1880    55.4330 c3         1 LDA      -0.075400
     13 C9          65.9470    94.1690    56.5620 c3         1 LDA      -0.073400
     14 C10         67.1890    93.3050    56.7640 c3         1 LDA      -0.073400
     15 C11         68.3970    94.0670    57.3000 c3         1 LDA      -0.076400
     16 C12         69.5910    93.1630    57.5700 c3         1 LDA      -0.089100
     17 HM11        59.7060   104.1570    55.6870 hx         1 LDA       0.062033
     18 HM12        58.8730   102.9590    56.7060 hx         1 LDA       0.062033
     19 HM13        59.5540   104.4270    57.4400 hx         1 LDA       0.062033
     20 HM21        62.1570   104.3910    55.9000 hx         1 LDA       0.062033
     21 HM22        61.8580   104.7150    57.6240 hx         1 LDA       0.062033
     22 HM23        62.9960   103.4460    57.1530 hx         1 LDA       0.062033
     23 H11         60.2280   101.3130    55.8850 hx         1 LDA       0.055700
     24 H12         61.1740   102.4290    54.8960 hx         1 LDA       0.055700
     25 H21         63.2710   101.6230    56.0090 hc         1 LDA       0.064700
     26 H22         62.3090   100.5640    57.0310 hc         1 LDA       0.064700
     27 H31         61.4870    99.3760    54.9740 hc         1 LDA       0.035700
     28 H32         62.4580   100.4390    53.9780 hc         1 LDA       0.035700
     29 H41         64.5270    99.6180    55.1470 hc         1 LDA       0.042200
     30 H42         63.5380    98.5400    56.1070 hc         1 LDA       0.042200
     31 H51         62.7810    97.3880    54.0020 hc         1 LDA       0.036700
     32 H52         63.7470    98.5010    53.0600 hc         1 LDA       0.036700
     33 H61         65.0200    96.4890    53.2210 hc         1 LDA       0.037200
     34 H62         65.8150    97.6610    54.2460 hc         1 LDA       0.037200
     35 H71         64.6860    96.6140    56.2550 hc         1 LDA       0.038200
     36 H72         63.9330    95.4460    55.1920 hc         1 LDA       0.038200
     37 H81         66.2250    94.6600    54.4870 hc         1 LDA       0.036700
     38 H82         66.9350    95.8260    55.5810 hc         1 LDA       0.036700
     39 H91         65.7180    94.6890    57.4990 hc         1 LDA       0.037200
     40 H92         65.0880    93.5200    56.3640 hc         1 LDA       0.037200
     41 H101        66.9490    92.4970    57.4620 hc         1 LDA       0.037200
     42 H102        67.4550    92.8170    55.8200 hc         1 LDA       0.037200
     43 H111        68.6910    94.8510    56.5970 hc         1 LDA       0.037200
     44 H112        68.1110    94.5820    58.2230 hc         1 LDA       0.037200
     45 H121        70.4410    93.7270    57.9570 hc         1 LDA       0.030367
     46 H122        69.3470    92.3920    58.3030 hc         1 LDA       0.030367
     47 H123        69.9180    92.6570    56.6590 hc         1 LDA       0.030367
@<TRIPOS>BOND
     1     1     2 1   
     2     1     3 1   
     3     1     4 1   
     4     1     5 1   
     5     3    17 1   
     6     3    18 1   
     7     3    19 1   
     8     4    20 1   
     9     4    21 1   
    10     4    22 1   
    11     5     6 1   
    12     5    23 1   
    13     5    24 1   
    14     6     7 1   
    15     6    25 1   
    16     6    26 1   
    17     7     8 1   
    18     7    27 1   
    19     7    28 1   
    20     8     9 1   
    21     8    29 1   
    22     8    30 1   
    23     9    10 1   
    24     9    31 1   
    25     9    32 1   
    26    10    11 1   
    27    10    33 1   
    28    10    34 1   
    29    11    12 1   
    30    11    35 1   
    31    11    36 1   
    32    12    13 1   
    33    12    37 1   
    34    12    38 1   
    35    13    14 1   
    36    13    39 1   
    37    13    40 1   
    38    14    15 1   
    39    14    41 1   
    40    14    42 1   
    41    15    16 1   
    42    15    43 1   
    43    15    44 1   
    44    16    45 1   
    45    16    46 1   
    46    16    47 1   
@<TRIPOS>SUBSTRUCTURE
     1 LDA         1 TEMP              0 ****  ****    0 ROOT
