@<TRIPOS>MOLECULE
LDB
   12    12     1     0     0
SMALL
bcc


@<TRIPOS>ATOM
      1 N01         -0.1050     0.8210     0.0150 ns         1 LDB      -0.524500
      2 N02         -1.7730    -0.7600     0.0020 ns         1 LDB      -0.460100
      3 C01         -1.4600     0.5750     0.0030 c          1 LDB       0.808500
      4 C02          0.9060    -0.0990     0.0260 cs         1 LDB       0.460600
      5 C03          0.4820    -1.4600     0.0240 cc         1 LDB      -0.280200
      6 C04         -0.8390    -1.7400     0.0120 cd         1 LDB       0.048600
      7 O01         -2.2890     1.4570    -0.0060 o          1 LDB      -0.608500
      8 S01          2.4900     0.3920     0.0400 s          1 LDB      -0.502400
      9 H1           0.1600     1.7980     0.0150 hn         1 LDB       0.361500
     10 H2          -2.7540    -1.0020    -0.0070 hn         1 LDB       0.352500
     11 H3           1.2150    -2.2490     0.0320 ha         1 LDB       0.183000
     12 H4          -1.2210    -2.7500     0.0110 h4         1 LDB       0.162000
@<TRIPOS>BOND
     1     1     3 1   
     2     1     4 1   
     3     1     9 1   
     4     2     3 1   
     5     2     6 1   
     6     2    10 1   
     7     3     7 2   
     8     4     5 1   
     9     4     8 2   
    10     5     6 2   
    11     5    11 1   
    12     6    12 1   
@<TRIPOS>SUBSTRUCTURE
     1 LDB         1 TEMP              0 ****  ****    0 ROOT
