@<TRIPOS>MOLECULE
LDB
   12    12     1     0     0
SMALL
No Charge or Current Charge


@<TRIPOS>ATOM
      1 N01         -0.1070     0.8160     0.0150 ns         1 LDB      -0.390500
      2 N02         -1.7690    -0.7570     0.0020 ns         1 LDB      -0.506600
      3 C01         -1.4470     0.5700     0.0030 c          1 LDB       0.599000
      4 C02          0.9160    -0.0860     0.0260 cs         1 LDB       0.393600
      5 C03          0.4780    -1.4530     0.0240 cc         1 LDB      -0.330200
      6 C04         -0.8560    -1.7970     0.0120 cd         1 LDB      -0.001400
      7 O01         -2.2860     1.4510    -0.0060 o          1 LDB      -0.533000
      8 S01          2.5080     0.4090     0.0400 s          1 LDB      -0.502400
      9 H1           0.1500     1.7910     0.0160 hn         1 LDB       0.361500
     10 H2          -2.7690    -0.9390    -0.0070 hn         1 LDB       0.466000
     11 H3           1.2550    -2.2120     0.0330 ha         1 LDB       0.233000
     12 H4          -1.2610    -2.8100     0.0100 h4         1 LDB       0.212000
@<TRIPOS>BOND
     1     1     3 1   
     2     1     4 1   
     3     1     9 1   
     4     2     3 1   
     5     2     6 1   
     6     2    10 1   
     7     3     7 2   
     8     4     5 1   
     9     4     8 2   
    10     5     6 2   
    11     5    11 1   
    12     6    12 1   
@<TRIPOS>SUBSTRUCTURE
     1 LDB         1 TEMP              0 ****  ****    0 ROOT
