@<TRIPOS>MOLECULE
LDC
   29    30     1     0     0
SMALL
No Charge or Current Charge


@<TRIPOS>ATOM
      1 O1           2.9030     1.6950    -2.4630 o          1 LDC      -0.565000
      2 C2           2.4480     0.5930    -2.7220 c          1 LDC       0.709400
      3 N3           3.2590    -0.3450    -3.3010 nc         1 LDC      -0.773100
      4 C3           2.8010    -1.5200    -3.5710 cd         1 LDC       0.785500
      5 N4           3.6660    -2.3470    -4.1180 nv         1 LDC      -1.036200
      6 C4           1.4870    -1.9460    -3.3020 cd         1 LDC      -0.500600
      7 C5           0.6360    -1.0340    -2.7240 cc         1 LDC       0.029600
      8 N2           1.1130     0.2440    -2.4390 n          1 LDC      -0.334000
      9 C8           0.2520     1.2380    -1.7490 c5         1 LDC       0.324700
     10 C9          -0.0230     0.7650    -0.3010 c5         1 LDC      -0.158400
     11 C10         -1.2920     1.6030    -0.0030 c5         1 LDC       0.146300
     12 O3          -0.9520     2.9710     0.2690 oh         1 LDC      -0.702000
     13 C11         -2.0740     1.4150    -1.3520 c5         1 LDC       0.119300
     14 O4          -1.0410     1.3550    -2.3820 os         1 LDC      -0.449000
     15 C12         -2.9410     0.1200    -1.3860 c3         1 LDC       0.140600
     16 O5          -3.7620     0.0720    -2.5670 oh         1 LDC      -0.710000
     17 HN41         3.4880    -3.3290    -3.9570 hn         1 LDC       0.501000
     18 HN42         4.6280    -2.0530    -4.0210 hn         1 LDC       0.501000
     19 H4           1.1600    -2.9480    -3.5530 ha         1 LDC       0.200000
     20 H5          -0.4100    -1.1910    -2.4720 h4         1 LDC       0.229000
     21 H8           0.7520     2.2160    -1.7540 h2         1 LDC       0.102700
     22 H91          0.8060     0.9920     0.3770 hc         1 LDC       0.086200
     23 H92         -0.2200    -0.3090    -0.2290 hc         1 LDC       0.086200
     24 H10         -1.8510     1.1820     0.8470 h1         1 LDC       0.091700
     25 HO3         -1.0530     3.4780    -0.5700 ho         1 LDC       0.512000
     26 H11         -2.7390     2.2680    -1.5480 h1         1 LDC       0.101700
     27 H121        -3.5810     0.1110    -0.4930 h1         1 LDC       0.027700
     28 H122        -2.2930    -0.7630    -1.3310 h1         1 LDC       0.027700
     29 HO5         -4.2760    -0.7700    -2.5310 ho         1 LDC       0.506000
@<TRIPOS>BOND
     1     1     2 2   
     2     2     3 1   
     3     2     8 1   
     4     3     4 2   
     5     4     5 1   
     6     4     6 1   
     7     5    17 1   
     8     5    18 1   
     9     6     7 2   
    10     6    19 1   
    11     7     8 1   
    12     7    20 1   
    13     8     9 1   
    14     9    10 1   
    15     9    14 1   
    16     9    21 1   
    17    10    11 1   
    18    10    22 1   
    19    10    23 1   
    20    11    12 1   
    21    11    13 1   
    22    11    24 1   
    23    12    25 1   
    24    13    14 1   
    25    13    15 1   
    26    13    26 1   
    27    15    16 1   
    28    15    27 1   
    29    15    28 1   
    30    16    29 1   
@<TRIPOS>SUBSTRUCTURE
     1 LDC         1 TEMP              0 ****  ****    0 ROOT
