@<TRIPOS>MOLECULE
LDC
   29    30     1     0     0
SMALL
bcc


@<TRIPOS>ATOM
      1 O1           2.8730     1.1970    -1.5180 o          1 LDC      -0.640500
      2 C2           2.3780     0.3020    -2.1960 c          1 LDC       0.851900
      3 N3           3.1050    -0.6990    -2.7280 nc         1 LDC      -0.773100
      4 C3           2.5270    -1.6470    -3.4430 cd         1 LDC       0.785500
      5 N4           3.2950    -2.6150    -3.9450 nv         1 LDC      -0.925800
      6 C4           1.1240    -1.6550    -3.6940 cd         1 LDC      -0.450600
      7 C5           0.4060    -0.6410    -3.1640 cc         1 LDC       0.079600
      8 N2           0.9970     0.3230    -2.4250 n          1 LDC      -0.401000
      9 C8           0.2420     1.4440    -1.8320 c5         1 LDC       0.301500
     10 C9           0.1090     1.3310    -0.3080 c5         1 LDC      -0.158400
     11 C10         -1.3450     1.7190    -0.0400 c5         1 LDC       0.123100
     12 O3          -1.5300     3.0900     0.2180 oh         1 LDC      -0.579800
     13 C11         -2.0270     1.2520    -1.3250 c5         1 LDC       0.096100
     14 O4          -1.0550     1.4750    -2.3490 os         1 LDC      -0.402600
     15 C12         -2.4630    -0.1990    -1.2510 c3         1 LDC       0.117400
     16 O5          -2.9390    -0.5910    -2.5170 oh         1 LDC      -0.587800
     17 HN41         2.9040    -3.3780    -4.4680 hn         1 LDC       0.445800
     18 HN42         4.2820    -2.6300    -3.7510 hn         1 LDC       0.445800
     19 H4           0.6470    -2.4250    -4.2800 ha         1 LDC       0.150000
     20 H5          -0.6610    -0.5670    -3.3130 h4         1 LDC       0.179000
     21 H8           0.7620     2.3570    -2.1310 h2         1 LDC       0.102700
     22 H91          0.8120     1.9720     0.2180 hc         1 LDC       0.086200
     23 H92          0.2930     0.3060     0.0170 hc         1 LDC       0.086200
     24 H10         -1.7400     1.1970     0.8340 h1         1 LDC       0.091700
     25 HO3         -1.1720     3.6090    -0.5110 ho         1 LDC       0.413000
     26 H11         -2.8940     1.8720    -1.5690 h1         1 LDC       0.101700
     27 H121        -3.2440    -0.2720    -0.4830 h1         1 LDC       0.027700
     28 H122        -1.6330    -0.8370    -0.9160 h1         1 LDC       0.027700
     29 HO5         -3.1620    -1.5260    -2.4780 ho         1 LDC       0.407000
@<TRIPOS>BOND
     1     1     2 2   
     2     2     3 1   
     3     2     8 1   
     4     3     4 2   
     5     4     5 1   
     6     4     6 1   
     7     5    17 1   
     8     5    18 1   
     9     6     7 2   
    10     6    19 1   
    11     7     8 1   
    12     7    20 1   
    13     8     9 1   
    14     9    10 1   
    15     9    14 1   
    16     9    21 1   
    17    10    11 1   
    18    10    22 1   
    19    10    23 1   
    20    11    12 1   
    21    11    13 1   
    22    11    24 1   
    23    12    25 1   
    24    13    14 1   
    25    13    15 1   
    26    13    26 1   
    27    15    16 1   
    28    15    27 1   
    29    15    28 1   
    30    16    29 1   
@<TRIPOS>SUBSTRUCTURE
     1 LDC         1 TEMP              0 ****  ****    0 ROOT
