@<TRIPOS>MOLECULE
LDD
   36    37     1     0     0
SMALL
No Charge or Current Charge


@<TRIPOS>ATOM
      1 N1          -1.6740     0.2720    -0.3950 n          1 LDD      -0.404800
      2 C4           1.7020     1.1020     0.8620 ca         1 LDD      -0.037500
      3 C5           0.8020     0.7150    -0.1520 ca         1 LDD      -0.183600
      4 C6           1.2850    -0.0400    -1.2430 ca         1 LDD      -0.037500
      5 C7           2.6310    -0.4410    -1.2870 ca         1 LDD      -0.183000
      6 C8          -0.6320     1.1840    -0.0850 c          1 LDD       0.616700
      7 C10         -3.9370     0.6560     0.6880 c3         1 LDD      -0.093900
      8 C13         -2.6830    -2.1240    -0.2070 c3         1 LDD      -0.093900
      9 C1           5.8120    -0.1890     0.6390 c3         1 LDD       0.147900
     10 C11         -4.5880    -0.7290     0.8760 c3         1 LDD      -0.070400
     11 C12         -3.5980    -1.9040     1.0200 c3         1 LDD      -0.070400
     12 C14         -1.4460    -1.1960    -0.2640 c3         1 LDD       0.107000
     13 C2           3.5160    -0.0830    -0.2600 ca         1 LDD       0.157100
     14 C3           3.0480     0.6990     0.8170 ca         1 LDD      -0.183000
     15 C9          -3.0590     0.7760    -0.5750 c3         1 LDD       0.107000
     16 O1           4.8260    -0.5060    -0.3590 os         1 LDD      -0.340100
     17 O2          -0.8740     2.3540     0.1890 o          1 LDD      -0.605100
     18 H1           1.3520     1.7080     1.6960 ha         1 LDD       0.122000
     19 H2           0.6290    -0.2930    -2.0730 ha         1 LDD       0.122000
     20 H3           2.9930    -1.0250    -2.1290 ha         1 LDD       0.124500
     21 H4          -4.7420     1.3980     0.6160 hc         1 LDD       0.048200
     22 H5          -3.3490     0.9210     1.5750 hc         1 LDD       0.048200
     23 H6          -2.3130    -3.1560    -0.1710 hc         1 LDD       0.048200
     24 H7          -3.2630    -2.0450    -1.1340 hc         1 LDD       0.048200
     25 H8           5.9410     0.8970     0.7300 h1         1 LDD       0.042367
     26 H9           5.5210    -0.5940     1.6170 h1         1 LDD       0.042367
     27 H10          6.7820    -0.6240     0.3660 h1         1 LDD       0.042367
     28 H11         -5.2240    -0.6970     1.7700 hc         1 LDD       0.039200
     29 H12         -5.2580    -0.9280     0.0300 hc         1 LDD       0.039200
     30 H13         -4.1820    -2.8180     1.1830 hc         1 LDD       0.039200
     31 H14         -2.9860    -1.7650     1.9200 hc         1 LDD       0.039200
     32 H15         -0.8530    -1.5300    -1.1210 h1         1 LDD       0.048950
     33 H16         -0.8420    -1.3710     0.6370 h1         1 LDD       0.048950
     34 H17          3.7090     1.0050     1.6230 ha         1 LDD       0.124500
     35 H18         -3.0200     1.8330    -0.8700 h1         1 LDD       0.048950
     36 H19         -3.5360     0.2490    -1.4110 h1         1 LDD       0.048950
@<TRIPOS>BOND
     1     1     6 1   
     2     1    12 1   
     3     1    15 1   
     4     2     3 ar  
     5     2    14 ar  
     6     2    18 1   
     7     3     4 ar  
     8     3     6 1   
     9     4     5 ar  
    10     4    19 1   
    11     5    13 ar  
    12     5    20 1   
    13     6    17 2   
    14     7    10 1   
    15     7    15 1   
    16     7    21 1   
    17     7    22 1   
    18     8    11 1   
    19     8    12 1   
    20     8    23 1   
    21     8    24 1   
    22     9    16 1   
    23     9    25 1   
    24     9    26 1   
    25     9    27 1   
    26    10    11 1   
    27    10    28 1   
    28    10    29 1   
    29    11    30 1   
    30    11    31 1   
    31    12    32 1   
    32    12    33 1   
    33    13    14 ar  
    34    13    16 1   
    35    14    34 1   
    36    15    35 1   
    37    15    36 1   
@<TRIPOS>SUBSTRUCTURE
     1 LDD         1 TEMP              0 ****  ****    0 ROOT
