@<TRIPOS>MOLECULE
LDD
   36    37     1     0     0
SMALL
abcg2


@<TRIPOS>ATOM
      1 N1          -1.7090     0.2150    -0.5890 n          1 LDD      -0.404800
      2 C4           1.4720     0.8530     0.9310 ca         1 LDD      -0.037500
      3 C5           0.6780     0.5910    -0.1790 ca         1 LDD      -0.183600
      4 C6           1.2760     0.0090    -1.2980 ca         1 LDD      -0.037500
      5 C7           2.6190    -0.3130    -1.3000 ca         1 LDD      -0.183000
      6 C8          -0.7400     1.0600    -0.1750 c          1 LDD       0.616700
      7 C10         -3.8090     0.7380     0.6430 c3         1 LDD      -0.093900
      8 C13         -2.6340    -2.0810    -0.2410 c3         1 LDD      -0.093900
      9 C1           5.5270    -0.2190     0.8760 c3         1 LDD       0.147900
     10 C11         -4.2280    -0.6410     1.1380 c3         1 LDD      -0.070400
     11 C12         -3.1210    -1.6940     1.1560 c3         1 LDD      -0.070400
     12 C14         -1.5100    -1.2130    -0.7990 c3         1 LDD       0.107000
     13 C2           3.4010    -0.0740    -0.1670 ca         1 LDD       0.157100
     14 C3           2.8170     0.5120     0.9550 ca         1 LDD      -0.183000
     15 C9          -3.0640     0.7400    -0.6900 c3         1 LDD       0.107000
     16 O1           4.6920    -0.4340    -0.2460 os         1 LDD      -0.340100
     17 O2          -0.9830     2.2080     0.1860 o          1 LDD      -0.605100
     18 H1           1.0390     1.3200     1.8060 ha         1 LDD       0.122000
     19 H2           0.6960    -0.1850    -2.1920 ha         1 LDD       0.122000
     20 H3           3.0730    -0.7520    -2.1790 ha         1 LDD       0.124500
     21 H4          -4.7010     1.3620     0.5360 hc         1 LDD       0.048200
     22 H5          -3.1830     1.2310     1.3910 hc         1 LDD       0.048200
     23 H6          -2.2480    -3.1030    -0.2340 hc         1 LDD       0.048200
     24 H7          -3.4850    -2.0960    -0.9280 hc         1 LDD       0.048200
     25 H8           5.6050     0.8420     1.1290 h1         1 LDD       0.042367
     26 H9           5.1780    -0.7670     1.7550 h1         1 LDD       0.042367
     27 H10          6.5120    -0.5870     0.6030 h1         1 LDD       0.042367
     28 H11         -4.6430    -0.5370     2.1440 hc         1 LDD       0.039200
     29 H12         -5.0460    -1.0140     0.5130 hc         1 LDD       0.039200
     30 H13         -3.5120    -2.5870     1.6480 hc         1 LDD       0.039200
     31 H14         -2.2810    -1.3560     1.7720 hc         1 LDD       0.039200
     32 H15         -1.3910    -1.4300    -1.8650 h1         1 LDD       0.048950
     33 H16         -0.5820    -1.5060    -0.3120 h1         1 LDD       0.048950
     34 H17          3.3910     0.7190     1.8480 ha         1 LDD       0.124500
     35 H18         -3.0170     1.7540    -1.0830 h1         1 LDD       0.048950
     36 H19         -3.6010     0.1470    -1.4340 h1         1 LDD       0.048950
@<TRIPOS>BOND
     1     1     6 1   
     2     1    12 1   
     3     1    15 1   
     4     2     3 ar  
     5     2    14 ar  
     6     2    18 1   
     7     3     4 ar  
     8     3     6 1   
     9     4     5 ar  
    10     4    19 1   
    11     5    13 ar  
    12     5    20 1   
    13     6    17 2   
    14     7    10 1   
    15     7    15 1   
    16     7    21 1   
    17     7    22 1   
    18     8    11 1   
    19     8    12 1   
    20     8    23 1   
    21     8    24 1   
    22     9    16 1   
    23     9    25 1   
    24     9    26 1   
    25     9    27 1   
    26    10    11 1   
    27    10    28 1   
    28    10    29 1   
    29    11    30 1   
    30    11    31 1   
    31    12    32 1   
    32    12    33 1   
    33    13    14 ar  
    34    13    16 1   
    35    14    34 1   
    36    15    35 1   
    37    15    36 1   
@<TRIPOS>SUBSTRUCTURE
     1 LDD         1 TEMP              0 ****  ****    0 ROOT
