@<TRIPOS>MOLECULE
LDE
   38    37     1     0     0
SMALL
abcg2


@<TRIPOS>ATOM
      1 C1           4.0770     0.0190     0.4840 c3         1 LDE      -0.057400
      2 N1           2.4250    -0.3330     2.3060 n8         1 LDE      -0.954200
      3 C2           2.6600     0.2950     1.0050 c3         1 LDE      -0.185500
      4 P3           1.3490    -0.3070    -0.1650 p5         1 LDE       1.394000
      5 C4          -0.2110     0.0790     0.7290 c3         1 LDE      -0.393400
      6 C5          -1.4560    -0.1230    -0.1360 c3         1 LDE      -0.157700
      7 C6          -1.7260    -1.6160    -0.3970 c          1 LDE       0.735000
      8 C7          -2.6780     0.5300     0.5180 c3         1 LDE      -0.025400
      9 CD          -5.1680     1.1960     0.2260 c          1 LDE       0.709000
     10 CG           4.5190     0.7010    -0.8120 c3         1 LDE      -0.062700
     11 O31          1.5300    -1.8110    -0.2820 o          1 LDE      -0.831000
     12 O32          1.3810     0.5320    -1.4320 o          1 LDE      -0.831000
     13 O61         -1.7700    -2.0060    -1.5820 o          1 LDE      -0.770000
     14 O62         -1.9250    -2.3290     0.6120 o          1 LDE      -0.770000
     15 CD1          4.3340     2.2130    -0.7590 c3         1 LDE      -0.074100
     16 CD2          5.9750     0.3490    -1.1070 c3         1 LDE      -0.074100
     17 OE1         -5.0210     1.9040     1.2430 o          1 LDE      -0.790500
     18 OE2         -6.2360     1.0320    -0.4050 o          1 LDE      -0.790500
     19 CG1         -3.9370     0.4610    -0.3300 c3         1 LDE      -0.188400
     20 H1           4.7830     0.3090     1.2760 hc         1 LDE       0.004200
     21 H1A          4.1870    -1.0650     0.3680 hc         1 LDE       0.004200
     22 HN1          2.4440    -1.3390     2.1820 hn         1 LDE       0.361000
     23 HN1A         3.2000    -0.1210     2.9270 hn         1 LDE       0.361000
     24 H2           2.5230     1.3750     1.1310 h1         1 LDE       0.045700
     25 H4          -0.2830    -0.5280     1.6330 hc         1 LDE       0.025700
     26 H4A         -0.1570     1.1230     1.0580 hc         1 LDE       0.025700
     27 H5          -1.2870     0.3700    -1.1000 hc         1 LDE       0.034700
     28 H7          -2.8560     0.0600     1.4900 hc         1 LDE       0.010200
     29 H7A         -2.4450     1.5770     0.7300 hc         1 LDE       0.010200
     30 HG           3.9030     0.3210    -1.6300 hc         1 LDE       0.105700
     31 HD1          4.7280     2.6890    -1.6600 hc         1 LDE       0.013033
     32 HD1A         3.2800     2.4800    -0.6840 hc         1 LDE       0.013033
     33 HD1B         4.8580     2.6460     0.0980 hc         1 LDE       0.013033
     34 HD2          6.1220    -0.7310    -1.1690 hc         1 LDE       0.013033
     35 HD2A         6.3030     0.7830    -2.0530 hc         1 LDE       0.013033
     36 HD2B         6.6380     0.7280    -0.3240 hc         1 LDE       0.013033
     37 HG1         -3.7250     0.8690    -1.3270 hc         1 LDE       0.026200
     38 HG1A        -4.2190    -0.5810    -0.5110 hc         1 LDE       0.026200
@<TRIPOS>BOND
     1     1     3 1   
     2     1    10 1   
     3     1    20 1   
     4     1    21 1   
     5     2     3 1   
     6     2    22 1   
     7     2    23 1   
     8     3     4 1   
     9     3    24 1   
    10     4     5 1   
    11     4    11 1   
    12     4    12 1   
    13     5     6 1   
    14     5    25 1   
    15     5    26 1   
    16     6     7 1   
    17     6     8 1   
    18     6    27 1   
    19     7    13 1   
    20     7    14 1   
    21     8    19 1   
    22     8    28 1   
    23     8    29 1   
    24     9    17 1   
    25     9    18 1   
    26     9    19 1   
    27    10    15 1   
    28    10    16 1   
    29    10    30 1   
    30    15    31 1   
    31    15    32 1   
    32    15    33 1   
    33    16    34 1   
    34    16    35 1   
    35    16    36 1   
    36    19    37 1   
    37    19    38 1   
@<TRIPOS>SUBSTRUCTURE
     1 LDE         1 TEMP              0 ****  ****    0 ROOT
