@<TRIPOS>MOLECULE
LDE
   38    37     1     0     0
SMALL
No Charge or Current Charge


@<TRIPOS>ATOM
      1 C1           4.1050     0.0390     0.6270 c3         1 LDE      -0.057400
      2 N1           2.4920     0.0780     2.5110 n8         1 LDE      -0.954200
      3 C2           2.6380     0.3920     1.0290 c3         1 LDE      -0.185500
      4 P3           1.3320    -0.2130    -0.2570 p5         1 LDE       1.394000
      5 C4          -0.2860     0.0840     0.6060 c3         1 LDE      -0.393400
      6 C5          -1.5780    -0.0050    -0.2790 c3         1 LDE      -0.157700
      7 C6          -1.7350    -1.3840    -0.9960 c          1 LDE       0.735000
      8 C7          -2.8470     0.3740     0.5380 c3         1 LDE      -0.025400
      9 CD          -5.3170     0.9430     0.5770 c          1 LDE       0.709000
     10 CG           4.6300     0.5960    -0.7300 c3         1 LDE      -0.062700
     11 O31          1.5140    -1.6760    -0.5280 o          1 LDE      -0.831000
     12 O32          1.3840     0.6180    -1.5040 o          1 LDE      -0.831000
     13 O61         -1.7220    -1.4040    -2.2190 o          1 LDE      -0.770000
     14 O62         -1.8980    -2.3890    -0.3180 o          1 LDE      -0.770000
     15 CD1          4.6060     2.1440    -0.7960 c3         1 LDE      -0.074100
     16 CD2          6.0530     0.0650    -1.0250 c3         1 LDE      -0.074100
     17 OE1         -5.5170     2.1430     0.6840 o          1 LDE      -0.790500
     18 OE2         -5.9830     0.1010     1.1600 o          1 LDE      -0.790500
     19 CG1         -4.1450     0.4710    -0.3040 c3         1 LDE      -0.188400
     20 H1           4.7840     0.3930     1.4140 hc         1 LDE       0.004200
     21 H1A          4.2030    -1.0540     0.6140 hc         1 LDE       0.004200
     22 HN1          2.5190    -0.9390     2.6580 hn         1 LDE       0.361000
     23 HN1A         3.3120     0.4240     3.0230 hn         1 LDE       0.361000
     24 H2           2.5300     1.4800     0.9540 h1         1 LDE       0.045700
     25 H4          -0.3480    -0.6360     1.4290 hc         1 LDE       0.025700
     26 H4A         -0.2140     1.0820     1.0510 hc         1 LDE       0.025700
     27 H5          -1.4690     0.7550    -1.0630 hc         1 LDE       0.034700
     28 H7          -2.9930    -0.3560     1.3440 hc         1 LDE       0.010200
     29 H7A         -2.6760     1.3430     1.0230 hc         1 LDE       0.010200
     30 HG           3.9900     0.2190    -1.5360 hc         1 LDE       0.105700
     31 HD1          5.0230     2.4950    -1.7480 hc         1 LDE       0.013033
     32 HD1A         3.5840     2.5300    -0.7230 hc         1 LDE       0.013033
     33 HD1B         5.1990     2.5780     0.0170 hc         1 LDE       0.013033
     34 HD2          6.0640    -1.0310    -1.0350 hc         1 LDE       0.013033
     35 HD2A         6.4020     0.4140    -2.0050 hc         1 LDE       0.013033
     36 HD2B         6.7650     0.4090    -0.2650 hc         1 LDE       0.013033
     37 HG1         -3.9400     1.2080    -1.0900 hc         1 LDE       0.026200
     38 HG1A        -4.3410    -0.5390    -0.6840 hc         1 LDE       0.026200
@<TRIPOS>BOND
     1     1     3 1   
     2     1    10 1   
     3     1    20 1   
     4     1    21 1   
     5     2     3 1   
     6     2    22 1   
     7     2    23 1   
     8     3     4 1   
     9     3    24 1   
    10     4     5 1   
    11     4    11 1   
    12     4    12 1   
    13     5     6 1   
    14     5    25 1   
    15     5    26 1   
    16     6     7 1   
    17     6     8 1   
    18     6    27 1   
    19     7    13 1   
    20     7    14 1   
    21     8    19 1   
    22     8    28 1   
    23     8    29 1   
    24     9    17 1   
    25     9    18 1   
    26     9    19 1   
    27    10    15 1   
    28    10    16 1   
    29    10    30 1   
    30    15    31 1   
    31    15    32 1   
    32    15    33 1   
    33    16    34 1   
    34    16    35 1   
    35    16    36 1   
    36    19    37 1   
    37    19    38 1   
@<TRIPOS>SUBSTRUCTURE
     1 LDE         1 TEMP              0 ****  ****    0 ROOT
