@<TRIPOS>MOLECULE
LDH
   29    28     1     0     0
SMALL
No Charge or Current Charge


@<TRIPOS>ATOM
      1 N          -22.3980     1.2090   -17.6420 n8         1 LDH      -1.004200
      2 CA         -22.4600     1.9270   -18.9690 c3         1 LDH       0.010500
      3 CB         -21.8110     3.3390   -18.8690 c3         1 LDH      -0.052400
      4 CG         -22.7360     4.5090   -18.4320 c3         1 LDH      -0.065400
      5 CD         -23.3150     4.4520   -16.9950 c3         1 LDH      -0.059400
      6 CE         -24.6820     3.7380   -16.8830 c3         1 LDH       0.161800
      7 NZ         -25.1820     3.8010   -15.4950 n7         1 LDH      -0.868400
      8 CH         -26.4930     3.1670   -15.2760 c3         1 LDH       0.160800
      9 C1         -26.9010     3.2910   -13.7980 c3         1 LDH      -0.090100
     10 C          -21.8640     1.1320   -20.2050 c          1 LDH       0.692000
     11 O          -22.5930     0.9200   -21.1650 o          1 LDH      -0.735000
     12 OXT        -20.7350     0.6660   -20.1100 o          1 LDH      -0.735000
     13 HN1        -22.8760     0.3040   -17.7300 hn         1 LDH       0.380500
     14 HN2        -21.4230     0.9400   -17.4680 hn         1 LDH       0.380500
     15 HA         -23.5240     2.0750   -19.2010 h1         1 LDH       0.035700
     16 HB1        -20.9330     3.3000   -18.2120 hc         1 LDH       0.038200
     17 HB2        -21.4220     3.6030   -19.8600 hc         1 LDH       0.038200
     18 HG1        -22.1460     5.4310   -18.5140 hc         1 LDH       0.018200
     19 HG2        -23.5550     4.6160   -19.1540 hc         1 LDH       0.018200
     20 HD1        -22.5870     3.9820   -16.3220 hc         1 LDH       0.033700
     21 HD2        -23.4430     5.4820   -16.6410 hc         1 LDH       0.033700
     22 HE1        -25.3930     4.2280   -17.5620 h1         1 LDH       0.032200
     23 HE2        -24.5870     2.6940   -17.2040 h1         1 LDH       0.032200
     24 HNZ        -24.4980     3.3250   -14.8960 hn         1 LDH       0.412000
     25 HH1        -27.2600     3.6470   -15.9000 h1         1 LDH       0.022200
     26 HH2        -26.4550     2.1040   -15.5480 h1         1 LDH       0.022200
     27 H11        -26.1700     2.7940   -13.1480 hc         1 LDH       0.028700
     28 H12        -26.9740     4.3440   -13.5010 hc         1 LDH       0.028700
     29 H13        -27.8780     2.8210   -13.6360 hc         1 LDH       0.028700
@<TRIPOS>BOND
     1     1     2 1   
     2     1    13 1   
     3     1    14 1   
     4     2     3 1   
     5     2    10 1   
     6     2    15 1   
     7     3     4 1   
     8     3    16 1   
     9     3    17 1   
    10     4     5 1   
    11     4    18 1   
    12     4    19 1   
    13     5     6 1   
    14     5    20 1   
    15     5    21 1   
    16     6     7 1   
    17     6    22 1   
    18     6    23 1   
    19     7     8 1   
    20     7    24 1   
    21     8     9 1   
    22     8    25 1   
    23     8    26 1   
    24     9    27 1   
    25     9    28 1   
    26     9    29 1   
    27    10    11 1   
    28    10    12 1   
@<TRIPOS>SUBSTRUCTURE
     1 LDH         1 TEMP              0 ****  ****    0 ROOT
