@<TRIPOS>MOLECULE
LDH
   29    28     1     0     0
SMALL
abcg2


@<TRIPOS>ATOM
      1 N          -22.6660     1.5040   -17.4610 n8         1 LDH      -1.004200
      2 CA         -22.5840     1.9430   -18.8480 c3         1 LDH       0.010500
      3 CB         -21.9450     3.3350   -18.9340 c3         1 LDH      -0.052400
      4 CG         -22.8180     4.5350   -18.5610 c3         1 LDH      -0.065400
      5 CD         -23.3340     4.5910   -17.1200 c3         1 LDH      -0.059400
      6 CE         -24.7130     3.9680   -16.9510 c3         1 LDH       0.161800
      7 NZ         -25.0370     3.7710   -15.5510 n7         1 LDH      -0.868400
      8 CH         -26.3480     3.1840   -15.3510 c3         1 LDH       0.160800
      9 C1         -26.6090     2.9030   -13.8820 c3         1 LDH      -0.090100
     10 C          -21.8470     0.9580   -19.8000 c          1 LDH       0.692000
     11 O          -21.9270     1.2170   -21.0200 o          1 LDH      -0.735000
     12 OXT        -21.2410    -0.0000   -19.2810 o          1 LDH      -0.735000
     13 HN1        -23.1540     0.6170   -17.4310 hn         1 LDH       0.380500
     14 HN2        -21.7260     1.2810   -17.1520 hn         1 LDH       0.380500
     15 HA         -23.6100     2.0300   -19.2260 h1         1 LDH       0.035700
     16 HB1        -21.0410     3.3430   -18.3130 hc         1 LDH       0.038200
     17 HB2        -21.6070     3.4920   -19.9600 hc         1 LDH       0.038200
     18 HG1        -22.2270     5.4330   -18.7610 hc         1 LDH       0.018200
     19 HG2        -23.6670     4.5860   -19.2530 hc         1 LDH       0.018200
     20 HD1        -22.6220     4.0880   -16.4610 hc         1 LDH       0.033700
     21 HD2        -23.3810     5.6300   -16.7820 hc         1 LDH       0.033700
     22 HE1        -25.4630     4.6380   -17.3870 h1         1 LDH       0.032200
     23 HE2        -24.7690     3.0330   -17.5250 h1         1 LDH       0.032200
     24 HNZ        -24.3440     3.1400   -15.1610 hn         1 LDH       0.412000
     25 HH1        -27.0990     3.8850   -15.7270 h1         1 LDH       0.022200
     26 HH2        -26.4850     2.2560   -15.9290 h1         1 LDH       0.022200
     27 H11        -25.8850     2.1880   -13.4830 hc         1 LDH       0.028700
     28 H12        -26.5410     3.8150   -13.2880 hc         1 LDH       0.028700
     29 H13        -27.6020     2.4780   -13.7380 hc         1 LDH       0.028700
@<TRIPOS>BOND
     1     1     2 1   
     2     1    13 1   
     3     1    14 1   
     4     2     3 1   
     5     2    10 1   
     6     2    15 1   
     7     3     4 1   
     8     3    16 1   
     9     3    17 1   
    10     4     5 1   
    11     4    18 1   
    12     4    19 1   
    13     5     6 1   
    14     5    20 1   
    15     5    21 1   
    16     6     7 1   
    17     6    22 1   
    18     6    23 1   
    19     7     8 1   
    20     7    24 1   
    21     8     9 1   
    22     8    25 1   
    23     8    26 1   
    24     9    27 1   
    25     9    28 1   
    26     9    29 1   
    27    10    11 1   
    28    10    12 1   
@<TRIPOS>SUBSTRUCTURE
     1 LDH         1 TEMP              0 ****  ****    0 ROOT
