@<TRIPOS>MOLECULE
LDI
   43    44     1     0     0
SMALL
No Charge or Current Charge


@<TRIPOS>ATOM
      1 C10         27.5610    39.6420    35.5850 c3         1 LDI       0.152800
      2 C13         31.3080    39.0460    36.0420 ca         1 LDI      -0.093300
      3 C15         33.3660    40.1890    36.6930 ca         1 LDI      -0.114500
      4 C17         33.3990    38.5770    34.8710 ca         1 LDI      -0.114500
      5 C20         23.1320    40.3830    35.9310 c6         1 LDI      -0.072900
      6 C05         22.4550    41.4280    34.9950 c6         1 LDI      -0.137700
      7 C06         23.1990    41.3550    33.6290 c6         1 LDI      -0.072900
      8 C07         24.7180    41.5970    33.8000 c6         1 LDI       0.169300
      9 C09         26.8070    40.7630    34.8110 c3         1 LDI       0.169800
     10 C14         31.9880    39.9650    36.8650 ca         1 LDI      -0.095500
     11 C16         34.0720    39.4940    35.6960 ca         1 LDI      -0.106000
     12 C18         32.0220    38.3530    35.0430 ca         1 LDI      -0.095500
     13 C19         24.6540    40.6370    36.0610 c6         1 LDI       0.169300
     14 N08         25.3270    40.6060    34.7300 n3         1 LDI      -0.729600
     15 N11         29.0310    39.8110    35.5040 n7         1 LDI      -0.859400
     16 O01         19.1850    39.6620    33.9960 oh         1 LDI      -0.446100
     17 H1          27.2440    39.6580    36.6360 h1         1 LDI       0.036200
     18 H2          27.2680    38.6700    35.1640 h1         1 LDI       0.036200
     19 H3          33.8850    40.9000    37.3310 ha         1 LDI       0.112000
     20 H4          33.9450    38.0390    34.0990 ha         1 LDI       0.112000
     21 H5          22.6720    40.4230    36.9280 hc         1 LDI       0.055700
     22 H6          22.9730    39.3630    35.5570 hc         1 LDI       0.055700
     23 H7          22.5700    42.4350    35.4220 hc         1 LDI       0.080700
     24 H8          22.7880    42.1060    32.9400 hc         1 LDI       0.055700
     25 H9          23.0450    40.3780    33.1510 hc         1 LDI       0.055700
     26 H10         25.1960    41.5340    32.8120 h1         1 LDI       0.035950
     27 H11         24.8810    42.6190    34.1730 h1         1 LDI       0.035950
     28 H12         27.2170    40.7870    33.7920 h1         1 LDI       0.039200
     29 H13         27.0530    41.7290    35.2740 h1         1 LDI       0.039200
     30 H14         29.5820    38.8330    37.3060 h1         1 LDI       0.036700
     31 H15         29.5700    37.7920    35.8750 h1         1 LDI       0.036700
     32 H16         31.4460    40.5080    37.6370 ha         1 LDI       0.115000
     33 H17         35.1380    39.6670    35.5630 ha         1 LDI       0.112000
     34 H18         31.5090    37.6400    34.4000 ha         1 LDI       0.115000
     35 H19         25.0700    39.8670    36.7260 h1         1 LDI       0.035950
     36 H20         24.8170    41.6100    36.5490 h1         1 LDI       0.035950
     37 H21         21.2640    39.2950    33.9410 hn         1 LDI       0.352500
     38 H23         29.3080    39.7650    34.5160 hn         1 LDI       0.410000
     39 H25         18.7730    40.5590    34.0660 ho         1 LDI       0.471000
     40 C03         20.9430    41.1620    34.8370 c          1 LDI       0.584100
     41 C12         29.8170    38.8010    36.2330 c3         1 LDI       0.205100
     42 N02         20.5660    39.9260    34.3310 ns         1 LDI      -0.365400
     43 O04         20.1010    41.9970    35.1420 o          1 LDI      -0.618100
@<TRIPOS>BOND
     1     1     9 1   
     2     1    15 1   
     3     1    17 1   
     4     1    18 1   
     5     2    10 ar  
     6     2    12 ar  
     7     2    41 1   
     8     3    10 ar  
     9     3    11 ar  
    10     3    19 1   
    11     4    11 ar  
    12     4    12 ar  
    13     4    20 1   
    14     5     6 1   
    15     5    13 1   
    16     5    21 1   
    17     5    22 1   
    18     6     7 1   
    19     6    23 1   
    20     6    40 1   
    21     7     8 1   
    22     7    24 1   
    23     7    25 1   
    24     8    14 1   
    25     8    26 1   
    26     8    27 1   
    27     9    14 1   
    28     9    28 1   
    29     9    29 1   
    30    10    32 1   
    31    11    33 1   
    32    12    34 1   
    33    13    14 1   
    34    13    35 1   
    35    13    36 1   
    36    15    38 1   
    37    15    41 1   
    38    16    39 1   
    39    16    42 1   
    40    30    41 1   
    41    31    41 1   
    42    37    42 1   
    43    40    42 1   
    44    40    43 2   
@<TRIPOS>SUBSTRUCTURE
     1 LDI         1 TEMP              0 ****  ****    0 ROOT
