@<TRIPOS>MOLECULE
LDI
   43    44     1     0     0
SMALL
abcg2


@<TRIPOS>ATOM
      1 C10         27.5360    39.7580    35.5070 c3         1 LDI       0.152800
      2 C13         31.1820    38.9910    35.8800 ca         1 LDI      -0.093300
      3 C15         33.1590    40.2330    36.5060 ca         1 LDI      -0.114500
      4 C17         33.3570    38.3350    35.0490 ca         1 LDI      -0.114500
      5 C20         23.2230    40.2240    35.7630 c6         1 LDI      -0.072900
      6 C05         22.5360    41.2780    34.8980 c6         1 LDI      -0.137700
      7 C06         23.3720    41.5250    33.6400 c6         1 LDI      -0.072900
      8 C07         24.8080    41.8560    34.0100 c6         1 LDI       0.169300
      9 C09         26.8210    41.0130    35.0180 c3         1 LDI       0.169800
     10 C14         31.7870    40.0420    36.5690 ca         1 LDI      -0.095500
     11 C16         33.9500    39.3790    35.7450 ca         1 LDI      -0.106000
     12 C18         31.9810    38.1470    35.1160 ca         1 LDI      -0.095500
     13 C19         24.6660    40.6190    36.0410 c6         1 LDI       0.169300
     14 N08         25.4040    40.7990    34.8050 n3         1 LDI      -0.729600
     15 N11         28.9730    39.9540    35.4840 n7         1 LDI      -0.859400
     16 O01         19.2830    39.5290    34.5940 oh         1 LDI      -0.446100
     17 H1          27.2480    39.5260    36.5360 h1         1 LDI       0.036200
     18 H2          27.2100    38.9050    34.8920 h1         1 LDI       0.036200
     19 H3          33.6140    41.0490    37.0520 ha         1 LDI       0.112000
     20 H4          33.9630    37.6670    34.4500 ha         1 LDI       0.112000
     21 H5          22.7020    40.0950    36.7140 hc         1 LDI       0.055700
     22 H6          23.2290    39.2570    35.2510 hc         1 LDI       0.055700
     23 H7          22.5080    42.2150    35.4690 hc         1 LDI       0.080700
     24 H8          22.9520    42.3450    33.0560 hc         1 LDI       0.055700
     25 H9          23.3560    40.6300    33.0110 hc         1 LDI       0.055700
     26 H10         25.3950    41.9840    33.0970 h1         1 LDI       0.035950
     27 H11         24.8280    42.8250    34.5410 h1         1 LDI       0.035950
     28 H12         27.2590    41.2980    34.0570 h1         1 LDI       0.039200
     29 H13         27.0210    41.8440    35.7130 h1         1 LDI       0.039200
     30 H14         29.4030    38.6150    37.0010 h1         1 LDI       0.036700
     31 H15         29.4240    37.8680    35.4130 h1         1 LDI       0.036700
     32 H16         31.1770    40.7120    37.1620 ha         1 LDI       0.115000
     33 H17         35.0210    39.5280    35.6960 ha         1 LDI       0.112000
     34 H18         31.5230    37.3320    34.5670 ha         1 LDI       0.115000
     35 H19         25.1310    39.8330    36.6370 h1         1 LDI       0.035950
     36 H20         24.6840    41.5370    36.6560 h1         1 LDI       0.035950
     37 H21         21.0670    39.0850    35.3460 hn         1 LDI       0.352500
     38 H23         29.2630    40.1440    34.5310 hn         1 LDI       0.410000
     39 H25         19.0670    40.1750    33.9000 ho         1 LDI       0.471000
     40 C03         21.1000    40.9990    34.5160 c          1 LDI       0.584100
     41 C12         29.6930    38.7860    35.9590 c3         1 LDI       0.205100
     42 N02         20.5520    39.8710    34.9810 ns         1 LDI      -0.365400
     43 O04         20.4360    41.7650    33.8220 o          1 LDI      -0.618100
@<TRIPOS>BOND
     1     1     9 1   
     2     1    15 1   
     3     1    17 1   
     4     1    18 1   
     5     2    10 ar  
     6     2    12 ar  
     7     2    41 1   
     8     3    10 ar  
     9     3    11 ar  
    10     3    19 1   
    11     4    11 ar  
    12     4    12 ar  
    13     4    20 1   
    14     5     6 1   
    15     5    13 1   
    16     5    21 1   
    17     5    22 1   
    18     6     7 1   
    19     6    23 1   
    20     6    40 1   
    21     7     8 1   
    22     7    24 1   
    23     7    25 1   
    24     8    14 1   
    25     8    26 1   
    26     8    27 1   
    27     9    14 1   
    28     9    28 1   
    29     9    29 1   
    30    10    32 1   
    31    11    33 1   
    32    12    34 1   
    33    13    14 1   
    34    13    35 1   
    35    13    36 1   
    36    15    38 1   
    37    15    41 1   
    38    16    39 1   
    39    16    42 1   
    40    30    41 1   
    41    31    41 1   
    42    37    42 1   
    43    40    42 1   
    44    40    43 2   
@<TRIPOS>SUBSTRUCTURE
     1 LDI         1 TEMP              0 ****  ****    0 ROOT
