@<TRIPOS>MOLECULE
LDJ
   31    32     1     0     0
SMALL
No Charge or Current Charge


@<TRIPOS>ATOM
      1 N1          -2.1070     1.8460     0.2660 ne         1 LDJ      -0.763100
      2 N3           1.0950     1.6790     1.7740 n2         1 LDJ      -0.373400
      3 C4          -2.7310     1.2320    -0.8040 c          1 LDJ       0.703500
      4 C5          -0.8810     1.5050     0.5260 cd         1 LDJ       0.643100
      5 C6           1.4070     0.7270     0.9350 cc         1 LDJ       0.250200
      6 C7           2.7100    -0.0460     0.8100 c5         1 LDJ       0.154000
      7 C8           3.5550     0.3950    -0.4070 c5         1 LDJ      -0.100400
      8 C10          3.7610    -1.9910     0.0720 c5         1 LDJ       0.149600
      9 C1          -5.2040     0.6010    -0.8570 c3         1 LDJ      -0.080600
     10 C2          -3.7900     0.1870    -0.3850 c3         1 LDJ      -0.115700
     11 C3          -3.4080    -1.2310    -0.8730 c3         1 LDJ      -0.080600
     12 C9           4.5720    -0.7780    -0.4790 c5         1 LDJ      -0.114400
     13 N2          -0.2020     2.1140     1.5410 na         1 LDJ      -0.556500
     14 O1          -2.4770     1.4990    -1.9680 o          1 LDJ      -0.598100
     15 O2           2.5040    -1.4460     0.5310 os         1 LDJ      -0.454000
     16 S1           0.1430     0.2830    -0.2100 ss         1 LDJ       0.030600
     17 H3           3.2840     0.0470     1.7430 h1         1 LDJ       0.086700
     18 H4           2.9510     0.4580    -1.3200 hc         1 LDJ       0.064200
     19 H5           4.0370     1.3680    -0.2590 hc         1 LDJ       0.064200
     20 H6           3.5640    -2.7490    -0.6980 h1         1 LDJ       0.055200
     21 H7           4.2770    -2.4730     0.9140 h1         1 LDJ       0.055200
     22 H8          -5.2560     0.6380    -1.9520 hc         1 LDJ       0.039533
     23 H9          -5.9570    -0.1130    -0.5020 hc         1 LDJ       0.039533
     24 H10         -5.4650     1.5930    -0.4680 hc         1 LDJ       0.039533
     25 H11         -3.8160     0.1530     0.7120 hc         1 LDJ       0.070700
     26 H12         -2.4270    -1.5250    -0.4800 hc         1 LDJ       0.039533
     27 H13         -4.1430    -1.9700    -0.5320 hc         1 LDJ       0.039533
     28 H14         -3.3650    -1.2700    -1.9680 hc         1 LDJ       0.039533
     29 H15          4.9380    -0.9500    -1.4980 hc         1 LDJ       0.061200
     30 H16          5.4490    -0.5840     0.1500 hc         1 LDJ       0.061200
     31 H17         -0.5990     2.8550     2.1200 hn         1 LDJ       0.551000
@<TRIPOS>BOND
     1     1     3 1   
     2     1     4 2   
     3     2     5 2   
     4     2    13 1   
     5     3    10 1   
     6     3    14 2   
     7     4    13 1   
     8     4    16 1   
     9     5     6 1   
    10     5    16 1   
    11     6     7 1   
    12     6    15 1   
    13     6    17 1   
    14     7    12 1   
    15     7    18 1   
    16     7    19 1   
    17     8    12 1   
    18     8    15 1   
    19     8    20 1   
    20     8    21 1   
    21     9    10 1   
    22     9    22 1   
    23     9    23 1   
    24     9    24 1   
    25    10    11 1   
    26    10    25 1   
    27    11    26 1   
    28    11    27 1   
    29    11    28 1   
    30    12    29 1   
    31    12    30 1   
    32    13    31 1   
@<TRIPOS>SUBSTRUCTURE
     1 LDJ         1 TEMP              0 ****  ****    0 ROOT
