@<TRIPOS>MOLECULE
LDJ
   31    32     1     0     0
SMALL
bcc


@<TRIPOS>ATOM
      1 N1          -2.0650     0.8670     0.6120 ne         1 LDJ      -0.763100
      2 N3           1.2500     1.6920     1.4630 n2         1 LDJ      -0.373400
      3 C4          -2.6490    -0.2220     0.0300 c          1 LDJ       0.703500
      4 C5          -0.7770     0.8230     0.7740 cd         1 LDJ       0.643100
      5 C6           1.6290     0.5660     0.9920 cc         1 LDJ       0.250200
      6 C7           3.0490     0.0980     0.9300 c5         1 LDJ       0.130800
      7 C8           3.9000     0.9010    -0.0700 c5         1 LDJ      -0.100400
      8 C10          3.7400    -1.3450    -0.7550 c5         1 LDJ       0.126400
      9 C1          -4.3940     0.9160    -1.3150 c3         1 LDJ      -0.080600
     10 C2          -4.1400    -0.0810    -0.1790 c3         1 LDJ      -0.115700
     11 C3          -4.8180    -1.4150    -0.4490 c3         1 LDJ      -0.080600
     12 C9           4.7220    -0.1880    -0.7500 c5         1 LDJ      -0.114400
     13 N2          -0.0820     1.8200     1.3360 na         1 LDJ      -0.501300
     14 O1          -2.0290    -1.2210    -0.3170 o          1 LDJ      -0.598100
     15 O2           3.0500    -1.2460     0.4890 os         1 LDJ      -0.407600
     16 S1           0.3570    -0.4450     0.3580 ss         1 LDJ       0.030600
     17 H3           3.4790     0.1470     1.9360 h1         1 LDJ       0.086700
     18 H4           3.2640     1.4070    -0.7980 hc         1 LDJ       0.064200
     19 H5           4.5000     1.6580     0.4320 hc         1 LDJ       0.064200
     20 H6           3.0370    -1.2560    -1.5910 h1         1 LDJ       0.055200
     21 H7           4.2130    -2.3250    -0.8080 h1         1 LDJ       0.055200
     22 H8          -3.9740     0.5530    -2.2550 hc         1 LDJ       0.039533
     23 H9          -5.4650     1.0530    -1.4610 hc         1 LDJ       0.039533
     24 H10         -3.9570     1.8910    -1.1010 hc         1 LDJ       0.039533
     25 H11         -4.5500     0.3520     0.7390 hc         1 LDJ       0.070700
     26 H12         -4.6550    -2.1260     0.3620 hc         1 LDJ       0.039533
     27 H13         -5.8940    -1.2720    -0.5510 hc         1 LDJ       0.039533
     28 H14         -4.4560    -1.8700    -1.3720 hc         1 LDJ       0.039533
     29 H15          5.0440     0.0920    -1.7520 hc         1 LDJ       0.061200
     30 H16          5.6080    -0.4380    -0.1630 hc         1 LDJ       0.061200
     31 H17         -0.5190     2.6670     1.6700 hn         1 LDJ       0.495800
@<TRIPOS>BOND
     1     1     3 1   
     2     1     4 2   
     3     2     5 2   
     4     2    13 1   
     5     3    10 1   
     6     3    14 2   
     7     4    13 1   
     8     4    16 1   
     9     5     6 1   
    10     5    16 1   
    11     6     7 1   
    12     6    15 1   
    13     6    17 1   
    14     7    12 1   
    15     7    18 1   
    16     7    19 1   
    17     8    12 1   
    18     8    15 1   
    19     8    20 1   
    20     8    21 1   
    21     9    10 1   
    22     9    22 1   
    23     9    23 1   
    24     9    24 1   
    25    10    11 1   
    26    10    25 1   
    27    11    26 1   
    28    11    27 1   
    29    11    28 1   
    30    12    29 1   
    31    12    30 1   
    32    13    31 1   
@<TRIPOS>SUBSTRUCTURE
     1 LDJ         1 TEMP              0 ****  ****    0 ROOT
