@<TRIPOS>MOLECULE
LDK
   35    34     1     0     0
SMALL
abcg2


@<TRIPOS>ATOM
      1 OE1         23.4660    48.5890    41.4250 o          1 LDK      -0.782000
      2 CD          23.9600    47.9810    42.3950 c          1 LDK       0.712000
      3 OE2         25.1430    48.0510    42.7910 o          1 LDK      -0.782000
      4 CG          23.0460    47.0310    43.1960 c3         1 LDK      -0.193900
      5 CB          21.5670    47.1060    42.8550 c3         1 LDK      -0.037900
      6 CA          20.7200    46.0730    43.5950 c3         1 LDK       0.084000
      7 C           20.8540    46.2490    45.1290 c          1 LDK       0.720500
      8 OXT         21.3870    45.3050    45.7450 o          1 LDK      -0.744000
      9 O           20.4600    47.3320    45.6010 o          1 LDK      -0.744000
     10 N           19.3340    46.2610    43.1460 n7         1 LDK      -0.885300
     11 SAW         18.2540    45.0710    43.5030 s6         1 LDK       1.262200
     12 OAE         17.9280    45.1730    44.9180 o          1 LDK      -0.622500
     13 OAF         18.6750    43.7580    43.0220 o          1 LDK      -0.622500
     14 NAP         16.9340    45.4990    42.6320 n7         1 LDK      -0.885300
     15 CAV         16.6970    45.0130    41.2710 c3         1 LDK       0.084000
     16 CAT         17.7400    45.4160    40.1990 c          1 LDK       0.720500
     17 OAJ         18.6020    46.2780    40.4960 o          1 LDK      -0.744000
     18 OAD         17.6100    44.8460    39.1060 o          1 LDK      -0.744000
     19 CAN         15.2940    45.4600    40.8440 c3         1 LDK      -0.037900
     20 CAL         15.1150    46.9630    40.6700 c3         1 LDK      -0.193900
     21 CAR         13.7220    47.3830    40.1520 c          1 LDK       0.712000
     22 OAH         13.1190    46.5700    39.4210 o          1 LDK      -0.782000
     23 OAB         13.3280    48.5200    40.4810 o          1 LDK      -0.782000
     24 H2          23.2020    47.2320    44.2600 hc         1 LDK       0.026700
     25 H3          23.4060    46.0060    43.0430 hc         1 LDK       0.026700
     26 H4          21.1770    48.1020    43.0840 hc         1 LDK       0.033200
     27 H5          21.4360    46.9640    41.7790 hc         1 LDK       0.033200
     28 H6          21.0860    45.0750    43.3220 h1         1 LDK       0.026700
     29 H8          19.2440    46.4140    42.1260 hn         1 LDK       0.497000
     30 H9          16.6510    46.4550    42.8110 hn         1 LDK       0.497000
     31 H10         16.6800    43.9220    41.3190 h1         1 LDK       0.026700
     32 H12         14.5760    45.0840    41.5790 hc         1 LDK       0.033200
     33 H13         15.0620    44.9590    39.9050 hc         1 LDK       0.033200
     34 H14         15.8540    47.3430    39.9540 hc         1 LDK       0.026700
     35 H15         15.3120    47.4990    41.6030 hc         1 LDK       0.026700
@<TRIPOS>BOND
     1     1     2 1   
     2     2     3 1   
     3     2     4 1   
     4     4     5 1   
     5     4    24 1   
     6     4    25 1   
     7     5     6 1   
     8     5    26 1   
     9     5    27 1   
    10     6     7 1   
    11     6    10 1   
    12     6    28 1   
    13     7     8 1   
    14     7     9 1   
    15    10    11 1   
    16    10    29 1   
    17    11    12 2   
    18    11    13 2   
    19    11    14 1   
    20    14    15 1   
    21    14    30 1   
    22    15    16 1   
    23    15    19 1   
    24    15    31 1   
    25    16    17 1   
    26    16    18 1   
    27    19    20 1   
    28    19    32 1   
    29    19    33 1   
    30    20    21 1   
    31    20    34 1   
    32    20    35 1   
    33    21    22 1   
    34    21    23 1   
@<TRIPOS>SUBSTRUCTURE
     1 LDK         1 TEMP              0 ****  ****    0 ROOT
