@<TRIPOS>MOLECULE
LDK
   35    34     1     0     0
SMALL
No Charge or Current Charge


@<TRIPOS>ATOM
      1 OE1         23.8630    48.0470    41.0250 o          1 LDK      -0.782000
      2 CD          23.5560    48.2870    42.1830 c          1 LDK       0.712000
      3 OE2         23.7050    49.3820    42.7020 o          1 LDK      -0.782000
      4 CG          22.9070    47.1660    43.0140 c3         1 LDK      -0.193900
      5 CB          21.3660    47.1960    42.8430 c3         1 LDK      -0.037900
      6 CA          20.6240    46.0490    43.5820 c3         1 LDK       0.084000
      7 C           20.8620    46.0900    45.1530 c          1 LDK       0.720500
      8 OXT         21.3170    45.0880    45.6950 o          1 LDK      -0.744000
      9 O           20.6220    47.1210    45.7730 o          1 LDK      -0.744000
     10 N           19.1890    46.0530    43.1500 n7         1 LDK      -0.885300
     11 SAW         18.2310    44.8140    43.6180 s6         1 LDK       1.262200
     12 OAE         17.9260    44.9060    45.0430 o          1 LDK      -0.622500
     13 OAF         18.6970    43.6020    42.9530 o          1 LDK      -0.622500
     14 NAP         16.9740    45.4650    42.8000 n7         1 LDK      -0.885300
     15 CAV         16.5790    44.9170    41.4550 c3         1 LDK       0.084000
     16 CAT         17.7140    44.9030    40.3450 c          1 LDK       0.720500
     17 OAJ         18.6510    45.6880    40.4510 o          1 LDK      -0.744000
     18 OAD         17.6530    44.0590    39.4600 o          1 LDK      -0.744000
     19 CAN         15.3110    45.6580    40.9490 c3         1 LDK      -0.037900
     20 CAL         15.4930    47.1730    40.6550 c3         1 LDK      -0.193900
     21 CAR         14.1760    47.7690    40.1280 c          1 LDK       0.712000
     22 OAH         13.9660    47.7360    38.9260 o          1 LDK      -0.782000
     23 OAB         13.3730    48.2100    40.9370 o          1 LDK      -0.782000
     24 H2          23.1010    47.3260    44.0810 hc         1 LDK       0.026700
     25 H3          23.2310    46.1840    42.6480 hc         1 LDK       0.026700
     26 H4          20.9800    48.1630    43.1880 hc         1 LDK       0.033200
     27 H5          21.1370    47.1310    41.7720 hc         1 LDK       0.033200
     28 H6          21.0760    45.1110    43.2330 h1         1 LDK       0.026700
     29 H8          19.1700    45.8590    42.1370 hn         1 LDK       0.497000
     30 H9          17.3970    46.3810    42.6710 hn         1 LDK       0.497000
     31 H10         16.2850    43.8670    41.5930 h1         1 LDK       0.026700
     32 H12         14.5100    45.5320    41.6880 hc         1 LDK       0.033200
     33 H13         14.9620    45.1610    40.0350 hc         1 LDK       0.033200
     34 H14         16.2720    47.2450    39.8870 hc         1 LDK       0.026700
     35 H15         15.7670    47.6440    41.6070 hc         1 LDK       0.026700
@<TRIPOS>BOND
     1     1     2 1   
     2     2     3 1   
     3     2     4 1   
     4     4     5 1   
     5     4    24 1   
     6     4    25 1   
     7     5     6 1   
     8     5    26 1   
     9     5    27 1   
    10     6     7 1   
    11     6    10 1   
    12     6    28 1   
    13     7     8 1   
    14     7     9 1   
    15    10    11 1   
    16    10    29 1   
    17    11    12 2   
    18    11    13 2   
    19    11    14 1   
    20    14    15 1   
    21    14    30 1   
    22    15    16 1   
    23    15    19 1   
    24    15    31 1   
    25    16    17 1   
    26    16    18 1   
    27    19    20 1   
    28    19    32 1   
    29    19    33 1   
    30    20    21 1   
    31    20    34 1   
    32    20    35 1   
    33    21    22 1   
    34    21    23 1   
@<TRIPOS>SUBSTRUCTURE
     1 LDK         1 TEMP              0 ****  ****    0 ROOT
