@<TRIPOS>MOLECULE
LDL
   48    51     1     0     0
SMALL
abcg2


@<TRIPOS>ATOM
      1 N1         -11.3630    -9.2110    -4.9310 na         1 LDL       0.121800
      2 N3         -12.3250    -9.6770    -6.7480 nc         1 LDL      -0.358000
      3 C4          -7.5390   -11.1930    -4.4500 ca         1 LDL      -0.076000
      4 C5          -8.5350   -10.2860    -4.7620 ca         1 LDL      -0.097500
      5 C6          -9.2560    -9.6540    -3.7500 ca         1 LDL      -0.105300
      6 C7         -10.3280    -8.6500    -4.0860 c3         1 LDL       0.125900
      7 C8         -13.0240   -10.2860    -5.7610 cc         1 LDL       0.274500
      8 C10        -14.5710   -11.4550    -7.3130 ca         1 LDL      -0.072500
      9 C13        -16.1950   -12.2320    -5.2160 ca         1 LDL      -0.151000
     10 C15        -18.6080   -13.0210    -7.5380 c2         1 LDL       0.835100
     11 C17        -19.8610   -11.9510    -9.1630 c5         1 LDL       0.191800
     12 C1          -7.2200   -11.4650    -3.1210 ca         1 LDL      -0.141600
     13 C2          -7.9460   -10.8420    -2.1110 ca         1 LDL      -0.076000
     14 C3          -8.9620    -9.9500    -2.4270 ca         1 LDL      -0.097500
     15 N2         -11.3310    -9.0370    -6.2400 nd         1 LDL      -0.207800
     16 C9         -14.2210   -11.0810    -6.0160 ca         1 LDL      -0.137500
     17 C11        -15.7120   -12.1990    -7.5600 ca         1 LDL      -0.151000
     18 C12        -15.0540   -11.4900    -4.9730 ca         1 LDL      -0.072500
     19 C14        -16.5640   -12.5930    -6.5180 ca         1 LDL       0.199400
     20 N4         -17.6900   -13.3770    -6.7110 ne         1 LDL      -0.722100
     21 N5         -19.6630   -13.8290    -7.8530 nu         1 LDL      -0.910400
     22 C16        -20.6920   -13.0700    -8.5380 c5         1 LDL       0.191800
     23 N6         -18.7770   -11.8420    -8.2050 nu         1 LDL      -0.910400
     24 C18        -12.3960    -9.9910    -4.5730 cd         1 LDL      -0.200000
     25 C19         -6.1340   -12.4540    -2.8330 c          1 LDL       0.631700
     26 N7          -5.3800   -12.1490    -1.7590 ns         1 LDL      -0.409300
     27 N8          -4.3530   -12.9780    -1.3470 n8         1 LDL      -0.720200
     28 O1          -5.9650   -13.4340    -3.5380 o          1 LDL      -0.551100
     29 H2          -8.7520   -10.0680    -5.8010 ha         1 LDL       0.126000
     30 H3          -9.9090    -7.8000    -4.6240 h1         1 LDL       0.078200
     31 H4         -10.7970    -8.2680    -3.1800 h1         1 LDL       0.078200
     32 H5         -13.9380   -11.1700    -8.1430 ha         1 LDL       0.116000
     33 H6         -16.8260   -12.5360    -4.3910 ha         1 LDL       0.115000
     34 H7         -19.4980   -12.2340   -10.1560 h1         1 LDL       0.052200
     35 H8         -20.4160   -11.0190    -9.2510 h1         1 LDL       0.052200
     36 H9          -7.7480   -11.0620    -1.0690 ha         1 LDL       0.127500
     37 H10         -9.5270    -9.4820    -1.6300 ha         1 LDL       0.126000
     38 H11        -15.9340   -12.4980    -8.5780 ha         1 LDL       0.115000
     39 H12        -14.8190   -11.2170    -3.9510 ha         1 LDL       0.116000
     40 H13        -19.9220   -14.5420    -7.1890 hn         1 LDL       0.500000
     41 H14        -21.4330   -12.6650    -7.8410 h1         1 LDL       0.052200
     42 H15        -21.2110   -13.6690    -9.2830 h1         1 LDL       0.052200
     43 H16        -17.9870   -11.2500    -8.4010 hn         1 LDL       0.500000
     44 H17        -12.5930   -10.2600    -3.5490 h4         1 LDL       0.168000
     45 H18         -5.5010   -11.2550    -1.3030 hn         1 LDL       0.300500
     46 H19         -3.4730   -12.4850    -1.4290 hn         1 LDL       0.398500
     47 H20         -4.4880   -13.2080    -0.3710 hn         1 LDL       0.398500
     48 H1          -6.9920   -11.6790    -5.2470 ha         1 LDL       0.127500
@<TRIPOS>BOND
     1     1     6 1   
     2     1    15 1   
     3     1    24 1   
     4     2     7 1   
     5     2    15 2   
     6     3     4 ar  
     7     3    12 ar  
     8     3    48 1   
     9     4     5 ar  
    10     4    29 1   
    11     5     6 1   
    12     5    14 ar  
    13     6    30 1   
    14     6    31 1   
    15     7    16 1   
    16     7    24 2   
    17     8    16 ar  
    18     8    17 ar  
    19     8    32 1   
    20     9    18 ar  
    21     9    19 ar  
    22     9    33 1   
    23    10    20 2   
    24    10    21 1   
    25    10    23 1   
    26    11    22 1   
    27    11    23 1   
    28    11    34 1   
    29    11    35 1   
    30    12    13 ar  
    31    12    25 1   
    32    13    14 ar  
    33    13    36 1   
    34    14    37 1   
    35    16    18 ar  
    36    17    19 ar  
    37    17    38 1   
    38    18    39 1   
    39    19    20 1   
    40    21    22 1   
    41    21    40 1   
    42    22    41 1   
    43    22    42 1   
    44    23    43 1   
    45    24    44 1   
    46    25    26 1   
    47    25    28 2   
    48    26    27 1   
    49    26    45 1   
    50    27    46 1   
    51    27    47 1   
@<TRIPOS>SUBSTRUCTURE
     1 LDL         1 TEMP              0 ****  ****    0 ROOT
