@<TRIPOS>MOLECULE
LDL
   48    51     1     0     0
SMALL
No Charge or Current Charge


@<TRIPOS>ATOM
      1 N1         -11.1650    -8.8100    -5.5430 na         1 LDL       0.121800
      2 N3         -12.3000    -8.8900    -7.3850 nc         1 LDL      -0.358000
      3 C4          -7.8130   -11.3800    -4.4010 ca         1 LDL      -0.076000
      4 C5          -8.6470   -10.3710    -4.9110 ca         1 LDL      -0.097500
      5 C6          -9.2360    -9.4280    -4.0490 ca         1 LDL      -0.105300
      6 C7         -10.1440    -8.3270    -4.5980 c3         1 LDL       0.125900
      7 C8         -12.7510    -9.8500    -6.5260 cc         1 LDL       0.274500
      8 C10        -14.6550   -10.6210    -7.9480 ca         1 LDL      -0.072500
      9 C13        -15.1480   -12.7930    -6.2460 ca         1 LDL      -0.151000
     10 C15        -18.2270   -13.1910    -7.6140 c2         1 LDL       0.835100
     11 C17        -20.1610   -12.0010    -7.5640 c5         1 LDL       0.191800
     12 C1          -7.5440   -11.4700    -3.0160 ca         1 LDL      -0.141600
     13 C2          -8.1370   -10.5130    -2.1550 ca         1 LDL      -0.076000
     14 C3          -8.9710    -9.5050    -2.6690 ca         1 LDL      -0.097500
     15 N2         -11.3240    -8.2500    -6.7910 nd         1 LDL      -0.207800
     16 C9         -13.8520   -10.7890    -6.7990 ca         1 LDL      -0.137500
     17 C11        -15.6980   -11.5200    -8.2330 ca         1 LDL      -0.151000
     18 C12        -14.1040   -11.8970    -5.9560 ca         1 LDL      -0.072500
     19 C14        -15.9550   -12.6040    -7.3760 ca         1 LDL       0.199400
     20 N4         -16.9920   -13.5110    -7.6570 ne         1 LDL      -0.722100
     21 N5         -19.2050   -14.0750    -7.8860 nu         1 LDL      -0.910400
     22 C16        -20.4600   -13.5050    -7.3450 c5         1 LDL       0.191800
     23 N6         -18.7260   -12.0000    -7.2090 nu         1 LDL      -0.910400
     24 C18        -12.0700    -9.8310    -5.3500 cd         1 LDL      -0.200000
     25 C19         -6.6370   -12.5750    -2.5010 c          1 LDL       0.631700
     26 N7          -6.4090   -12.6110    -1.1190 ns         1 LDL      -0.409300
     27 N8          -5.5700   -13.5900    -0.4270 n8         1 LDL      -0.720200
     28 O1          -6.1270   -13.3980    -3.2530 o          1 LDL      -0.551100
     29 H2          -8.8320   -10.3260    -5.9830 ha         1 LDL       0.126000
     30 H3          -9.5250    -7.5750    -5.1020 h1         1 LDL       0.078200
     31 H4         -10.6630    -7.8260    -3.7720 h1         1 LDL       0.078200
     32 H5         -14.4780    -9.7910    -8.6280 ha         1 LDL       0.116000
     33 H6         -15.3300   -13.6380    -5.5870 ha         1 LDL       0.115000
     34 H7         -20.3270   -11.7140    -8.6130 h1         1 LDL       0.052200
     35 H8         -20.7740   -11.3530    -6.9220 h1         1 LDL       0.052200
     36 H9          -7.9630   -10.5330    -1.0820 ha         1 LDL       0.127500
     37 H10         -9.4140    -8.7820    -1.9870 ha         1 LDL       0.126000
     38 H11        -16.3010   -11.3770    -9.1260 ha         1 LDL       0.115000
     39 H12        -13.4940   -12.0790    -5.0750 ha         1 LDL       0.116000
     40 H13        -18.9270   -15.0230    -7.6550 hn         1 LDL       0.500000
     41 H14        -20.5860   -13.7280    -6.2750 h1         1 LDL       0.052200
     42 H15        -21.3610   -13.8350    -7.8800 h1         1 LDL       0.052200
     43 H16        -18.1300   -11.2210    -7.4640 hn         1 LDL       0.500000
     44 H17        -12.1430   -10.4140    -4.4430 h4         1 LDL       0.168000
     45 H18         -6.8730   -11.8880    -0.5710 hn         1 LDL       0.300500
     46 H19         -4.7970   -13.1340     0.0820 hn         1 LDL       0.398500
     47 H20         -6.1090   -14.1220     0.2730 hn         1 LDL       0.398500
     48 H1          -7.3730   -12.0960    -5.0930 ha         1 LDL       0.127500
@<TRIPOS>BOND
     1     1     6 1   
     2     1    15 1   
     3     1    24 1   
     4     2     7 1   
     5     2    15 2   
     6     3     4 ar  
     7     3    12 ar  
     8     3    48 1   
     9     4     5 ar  
    10     4    29 1   
    11     5     6 1   
    12     5    14 ar  
    13     6    30 1   
    14     6    31 1   
    15     7    16 1   
    16     7    24 2   
    17     8    16 ar  
    18     8    17 ar  
    19     8    32 1   
    20     9    18 ar  
    21     9    19 ar  
    22     9    33 1   
    23    10    20 2   
    24    10    21 1   
    25    10    23 1   
    26    11    22 1   
    27    11    23 1   
    28    11    34 1   
    29    11    35 1   
    30    12    13 ar  
    31    12    25 1   
    32    13    14 ar  
    33    13    36 1   
    34    14    37 1   
    35    16    18 ar  
    36    17    19 ar  
    37    17    38 1   
    38    18    39 1   
    39    19    20 1   
    40    21    22 1   
    41    21    40 1   
    42    22    41 1   
    43    22    42 1   
    44    23    43 1   
    45    24    44 1   
    46    25    26 1   
    47    25    28 2   
    48    26    27 1   
    49    26    45 1   
    50    27    46 1   
    51    27    47 1   
@<TRIPOS>SUBSTRUCTURE
     1 LDL         1 TEMP              0 ****  ****    0 ROOT
