@<TRIPOS>MOLECULE
LDM
   57    56     1     0     0
SMALL
bcc


@<TRIPOS>ATOM
      1 N1          -8.1920    -0.4810     0.0350 n4         1 LDM      -0.207600
      2 O1          -8.1490    -1.2320    -1.0890 o          1 LDM      -0.662000
      3 C1          -7.0220     0.4570     0.0890 c3         1 LDM       0.125800
      4 C3          -4.5660     0.7900    -0.0280 c3         1 LDM       0.107000
      5 C4          -2.1160     0.8080    -0.0680 c          1 LDM       0.665100
      6 C5          -0.8750    -0.0640    -0.0870 c3         1 LDM      -0.155400
      7 C7           1.6460    -0.2000    -0.0930 c3         1 LDM      -0.077400
      8 C8           2.9630     0.5650    -0.0860 c3         1 LDM      -0.074400
      9 C10          5.5030     0.4260    -0.0490 c3         1 LDM      -0.074400
     10 C11          6.7290    -0.4790    -0.0270 c3         1 LDM      -0.074400
     11 C12          8.0440     0.2900     0.0000 c3         1 LDM      -0.074400
     12 CM1         -8.2060    -1.3610     1.2330 c3         1 LDM       0.101600
     13 CM2         -9.4320     0.3390     0.0420 c3         1 LDM       0.101600
     14 C2          -5.6830    -0.2430    -0.0170 c3         1 LDM      -0.101400
     15 C9           4.1870    -0.3420    -0.0700 c3         1 LDM      -0.074400
     16 N2          -3.2780     0.1340    -0.0860 ns         1 LDM      -0.581900
     17 C14         10.5860     0.1520     0.0530 c3         1 LDM      -0.075400
     18 C15         11.8010    -0.7660     0.0800 c3         1 LDM      -0.088100
     19 O2          -2.0750     2.0300    -0.0320 o          1 LDM      -0.604100
     20 C6           0.4290     0.7180    -0.0980 c3         1 LDM      -0.064400
     21 C13          9.2700    -0.6150     0.0250 c3         1 LDM      -0.075400
     22 H1C1        -7.0840     1.0340     1.0140 hx         1 LDM       0.061200
     23 H1C2        -7.1540     1.1470    -0.7460 hx         1 LDM       0.061200
     24 H3C1        -4.6250     1.4140     0.8690 h1         1 LDM       0.049700
     25 H3C2        -4.6860     1.4580    -0.8850 h1         1 LDM       0.049700
     26 H5C1        -0.9250    -0.7240    -0.9590 hc         1 LDM       0.054700
     27 H5C2        -0.9060    -0.7260     0.7840 hc         1 LDM       0.054700
     28 H7C1         1.6120    -0.8590    -0.9670 hc         1 LDM       0.035200
     29 H7C2         1.6040    -0.8570     0.7840 hc         1 LDM       0.035200
     30 H8C1         2.9930     1.2280     0.7860 hc         1 LDM       0.040200
     31 H8C2         3.0080     1.2190    -0.9650 hc         1 LDM       0.040200
     32 H101         5.5240     1.0850     0.8260 hc         1 LDM       0.037700
     33 H102         5.5540     1.0840    -0.9240 hc         1 LDM       0.037700
     34 H111         6.7100    -1.1370    -0.9030 hc         1 LDM       0.036700
     35 H112         6.6760    -1.1380     0.8470 hc         1 LDM       0.036700
     36 H121         8.0610     0.9490     0.8760 hc         1 LDM       0.037200
     37 H122         8.0980     0.9490    -0.8740 hc         1 LDM       0.037200
     38 HM11        -8.1990    -0.7760     2.1520 hx         1 LDM       0.063533
     39 HM12        -9.1060    -1.9670     1.1910 hx         1 LDM       0.063533
     40 HM13        -7.3360    -2.0100     1.2030 hx         1 LDM       0.063533
     41 HM21        -9.4280     0.9680    -0.8440 hx         1 LDM       0.063533
     42 HM22       -10.2840    -0.3350     0.0070 hx         1 LDM       0.063533
     43 HM23        -9.4910     0.9590     0.9350 hx         1 LDM       0.063533
     44 H2C1        -5.6550    -0.8390    -0.9300 hc         1 LDM       0.069200
     45 H2C2        -5.5330    -0.9190     0.8280 hc         1 LDM       0.069200
     46 H9C1         4.1630    -1.0000    -0.9450 hc         1 LDM       0.036200
     47 H9C2         4.1380    -1.0000     0.8050 hc         1 LDM       0.036200
     48 H2          -3.2550    -0.8730    -0.1040 hn         1 LDM       0.314500
     49 H141        10.6040     0.8100     0.9280 hc         1 LDM       0.036700
     50 H142        10.6410     0.8090    -0.8210 hc         1 LDM       0.036700
     51 H151        12.7340    -0.2010     0.0970 hc         1 LDM       0.031367
     52 H152        11.7880    -1.4080     0.9630 hc         1 LDM       0.031367
     53 H153        11.8230    -1.4140    -0.7980 hc         1 LDM       0.031367
     54 H6C1         0.4730     1.3780     0.7720 hc         1 LDM       0.055700
     55 H6C2         0.4680     1.3660    -0.9780 hc         1 LDM       0.055700
     56 H131         9.2520    -1.2730    -0.8510 hc         1 LDM       0.036700
     57 H132         9.2160    -1.2740     0.8990 hc         1 LDM       0.036700
@<TRIPOS>BOND
     1     1     2 1   
     2     1     3 1   
     3     1    12 1   
     4     1    13 1   
     5     3    14 1   
     6     3    22 1   
     7     3    23 1   
     8     4    14 1   
     9     4    16 1   
    10     4    24 1   
    11     4    25 1   
    12     5     6 1   
    13     5    16 1   
    14     5    19 2   
    15     6    20 1   
    16     6    26 1   
    17     6    27 1   
    18     7     8 1   
    19     7    20 1   
    20     7    28 1   
    21     7    29 1   
    22     8    15 1   
    23     8    30 1   
    24     8    31 1   
    25     9    10 1   
    26     9    15 1   
    27     9    32 1   
    28     9    33 1   
    29    10    11 1   
    30    10    34 1   
    31    10    35 1   
    32    11    21 1   
    33    11    36 1   
    34    11    37 1   
    35    12    38 1   
    36    12    39 1   
    37    12    40 1   
    38    13    41 1   
    39    13    42 1   
    40    13    43 1   
    41    14    44 1   
    42    14    45 1   
    43    15    46 1   
    44    15    47 1   
    45    16    48 1   
    46    17    18 1   
    47    17    21 1   
    48    17    49 1   
    49    17    50 1   
    50    18    51 1   
    51    18    52 1   
    52    18    53 1   
    53    20    54 1   
    54    20    55 1   
    55    21    56 1   
    56    21    57 1   
@<TRIPOS>SUBSTRUCTURE
     1 LDM         1 TEMP              0 ****  ****    0 ROOT
