@<TRIPOS>MOLECULE
LDM
   57    56     1     0     0
SMALL
No Charge or Current Charge


@<TRIPOS>ATOM
      1 N1          -8.1210    -0.1710     0.1440 n4         1 LDM      -0.123000
      2 O1          -8.2890    -1.3840    -0.5110 o          1 LDM      -0.662000
      3 C1          -6.8670     0.5540    -0.3730 c3         1 LDM       0.097600
      4 C3          -4.3500     0.6580    -0.8230 c3         1 LDM       0.107000
      5 C4          -2.3170    -0.0890     0.4650 c          1 LDM       0.598100
      6 C5          -1.0190    -0.8970     0.3580 c3         1 LDM      -0.155400
      7 C7           1.5520    -0.7570     0.2360 c3         1 LDM      -0.077400
      8 C8           2.7940     0.1610     0.2260 c3         1 LDM      -0.074400
      9 C10          5.3630     0.2970     0.1030 c3         1 LDM      -0.074400
     10 C11          6.6910    -0.4840    -0.0080 c3         1 LDM      -0.074400
     11 C12          7.9330     0.4330    -0.0190 c3         1 LDM      -0.074400
     12 CM1         -8.0060    -0.4050     1.6540 c3         1 LDM       0.073400
     13 CM2         -9.3370     0.7210    -0.1160 c3         1 LDM       0.073400
     14 C2          -5.5070    -0.1620    -0.2250 c3         1 LDM      -0.101400
     15 C9           4.1210    -0.6210     0.1140 c3         1 LDM      -0.074400
     16 N2          -3.0610    -0.0260    -0.6920 ns         1 LDM      -0.514900
     17 C14         10.5030     0.5700    -0.1420 c3         1 LDM      -0.075400
     18 C15         11.8280    -0.2100    -0.2540 c3         1 LDM      -0.088100
     19 O2          -2.6810     0.4380     1.5070 o          1 LDM      -0.604100
     20 C6           0.2240     0.0240     0.3480 c3         1 LDM      -0.064400
     21 C13          9.2610    -0.3480    -0.1310 c3         1 LDM      -0.075400
     22 H1C1        -6.8130     1.5120     0.1490 hx         1 LDM       0.061200
     23 H1C2        -7.0350     0.7590    -1.4320 hx         1 LDM       0.061200
     24 H3C1        -4.2890     1.6340    -0.3220 h1         1 LDM       0.049700
     25 H3C2        -4.5420     0.8380    -1.8890 h1         1 LDM       0.049700
     26 H5C1        -1.0210    -1.4890    -0.5650 hc         1 LDM       0.054700
     27 H5C2        -0.9500    -1.5640     1.2250 hc         1 LDM       0.054700
     28 H7C1         1.5410    -1.3580    -0.6820 hc         1 LDM       0.035200
     29 H7C2         1.6290    -1.4580     1.0770 hc         1 LDM       0.035200
     30 H8C1         2.8060     0.7610     1.1440 hc         1 LDM       0.040200
     31 H8C2         2.7170     0.8620    -0.6150 hc         1 LDM       0.040200
     32 H101         5.3750     0.8980     1.0210 hc         1 LDM       0.037700
     33 H102         5.2860     0.9980    -0.7370 hc         1 LDM       0.037700
     34 H111         6.6790    -1.0850    -0.9260 hc         1 LDM       0.036700
     35 H112         6.7680    -1.1850     0.8320 hc         1 LDM       0.036700
     36 H121         7.9450     1.0340     0.8990 hc         1 LDM       0.037200
     37 H122         7.8560     1.1340    -0.8600 hc         1 LDM       0.037200
     38 HM11        -7.8650     0.5560     2.1520 hx         1 LDM       0.063533
     39 HM12        -8.9230    -0.8780     2.0100 hx         1 LDM       0.063533
     40 HM13        -7.1530    -1.0560     1.8490 hx         1 LDM       0.063533
     41 HM21        -9.4250     0.8950    -1.1890 hx         1 LDM       0.063533
     42 HM22       -10.2320     0.2170     0.2550 hx         1 LDM       0.063533
     43 HM23        -9.1990     1.6690     0.4070 hx         1 LDM       0.063533
     44 H2C1        -5.5550    -1.1360    -0.7270 hc         1 LDM       0.069200
     45 H2C2        -5.3070    -0.3520     0.8350 hc         1 LDM       0.069200
     46 H9C1         4.1090    -1.2210    -0.8040 hc         1 LDM       0.036200
     47 H9C2         4.1990    -1.3210     0.9550 hc         1 LDM       0.036200
     48 H2          -2.6800    -0.4960    -1.5050 hn         1 LDM       0.314500
     49 H141        10.5200     1.1710     0.7750 hc         1 LDM       0.036700
     50 H142        10.4300     1.2700    -0.9830 hc         1 LDM       0.036700
     51 H151        12.6790     0.4820    -0.2580 hc         1 LDM       0.031367
     52 H152        11.9470    -0.8950     0.5940 hc         1 LDM       0.031367
     53 H153        11.8570    -0.7950    -1.1800 hc         1 LDM       0.031367
     54 H6C1         0.2360     0.6260     1.2650 hc         1 LDM       0.055700
     55 H6C2         0.1460     0.7250    -0.4930 hc         1 LDM       0.055700
     56 H131         9.2490    -0.9490    -1.0490 hc         1 LDM       0.036700
     57 H132         9.3380    -1.0490     0.7100 hc         1 LDM       0.036700
@<TRIPOS>BOND
     1     1     2 1   
     2     1     3 1   
     3     1    12 1   
     4     1    13 1   
     5     3    14 1   
     6     3    22 1   
     7     3    23 1   
     8     4    14 1   
     9     4    16 1   
    10     4    24 1   
    11     4    25 1   
    12     5     6 1   
    13     5    16 1   
    14     5    19 2   
    15     6    20 1   
    16     6    26 1   
    17     6    27 1   
    18     7     8 1   
    19     7    20 1   
    20     7    28 1   
    21     7    29 1   
    22     8    15 1   
    23     8    30 1   
    24     8    31 1   
    25     9    10 1   
    26     9    15 1   
    27     9    32 1   
    28     9    33 1   
    29    10    11 1   
    30    10    34 1   
    31    10    35 1   
    32    11    21 1   
    33    11    36 1   
    34    11    37 1   
    35    12    38 1   
    36    12    39 1   
    37    12    40 1   
    38    13    41 1   
    39    13    42 1   
    40    13    43 1   
    41    14    44 1   
    42    14    45 1   
    43    15    46 1   
    44    15    47 1   
    45    16    48 1   
    46    17    18 1   
    47    17    21 1   
    48    17    49 1   
    49    17    50 1   
    50    18    51 1   
    51    18    52 1   
    52    18    53 1   
    53    20    54 1   
    54    20    55 1   
    55    21    56 1   
    56    21    57 1   
@<TRIPOS>SUBSTRUCTURE
     1 LDM         1 TEMP              0 ****  ****    0 ROOT
