@<TRIPOS>MOLECULE
LDN
   53    58     1     0     0
SMALL
bcc


@<TRIPOS>ATOM
      1 CAA          5.9640     3.1480     0.8960 ca         1 LDN      -0.120000
      2 CAB          4.7500     2.6300     1.3920 ca         1 LDN      -0.134000
      3 CAC          6.8060    -0.8220    -1.4610 ca         1 LDN       0.417200
      4 CAD          5.5930    -1.4150    -1.0720 ca         1 LDN      -0.255300
      5 CAE         -2.9060    -1.3690    -0.3060 ca         1 LDN      -0.079000
      6 CAF         -2.5570     0.9270     0.2190 ca         1 LDN      -0.079000
      7 CAG         -4.2750    -1.1630    -0.3240 ca         1 LDN      -0.187500
      8 CAH         -3.9200     1.1430     0.2070 ca         1 LDN      -0.187500
      9 CAI          6.7410     2.3970     0.0580 ca         1 LDN      -0.171300
     10 CAJ          4.3260     1.3830     1.0210 ca         1 LDN      -0.091000
     11 CAK          0.3480     0.4380    -0.4690 cc         1 LDN       0.445200
     12 CAL          3.2650    -2.6330     0.6070 cc         1 LDN       0.402500
     13 CAM         -0.0190    -1.7250     0.4430 cd         1 LDN      -0.012300
     14 CAN         -8.1110     1.8430    -0.1820 c6         1 LDN       0.149300
     15 CAO         -8.4850    -0.4550     0.2640 c6         1 LDN       0.149300
     16 CAP         -6.7030     1.5400    -0.6550 c6         1 LDN       0.202300
     17 CAQ         -7.0830    -0.8080    -0.2000 c6         1 LDN       0.202300
     18 NAR          7.1690     0.3870    -1.1250 nb         1 LDN      -0.663000
     19 NAS          1.6440     0.3060    -0.4750 nd         1 LDN      -0.630000
     20 NAT          1.9950    -2.9450     0.8080 nd         1 LDN      -0.574100
     21 NAU         -8.9670     0.7060    -0.4540 n7         1 LDN      -0.805200
     22 CAV         -2.0140    -0.3350    -0.0340 ca         1 LDN      -0.081000
     23 CAW         -0.5630    -0.5570    -0.0090 cc         1 LDN      -0.181300
     24 CAX         -4.8240     0.1010    -0.0610 ca         1 LDN       0.183600
     25 CAY          4.7100    -0.7170    -0.2830 ca         1 LDN       0.061200
     26 CAZ          3.4470    -1.3370     0.1040 cc         1 LDN      -0.240800
     27 CBA          6.3350     1.0980    -0.3290 ca         1 LDN       0.396600
     28 CBB          5.0940     0.5890     0.1390 ca         1 LDN      -0.128300
     29 CBC          2.1490    -0.8460    -0.0180 cd         1 LDN       0.380500
     30 NBD         -6.1920     0.3250    -0.0320 nh         1 LDN      -0.657000
     31 NBE          1.3240    -1.8620     0.4200 na         1 LDN       0.074200
     32 HAA          6.2830     4.1380     1.1920 ha         1 LDN       0.131000
     33 HAB          4.1550     3.2210     2.0740 ha         1 LDN       0.130000
     34 HAC          7.4890    -1.3810    -2.0920 h4         1 LDN       0.016100
     35 HAD          5.3530    -2.4090    -1.4250 ha         1 LDN       0.140000
     36 HAF         -1.9080     1.7600     0.4610 ha         1 LDN       0.130000
     37 HAG         -4.9080    -2.0030    -0.5720 ha         1 LDN       0.135500
     38 HAH         -4.2790     2.1350     0.4450 ha         1 LDN       0.135500
     39 HAI          7.6840     2.7710    -0.3190 ha         1 LDN       0.147000
     40 HAJ          3.4000     0.9960     1.4230 ha         1 LDN       0.137000
     41 HAK         -0.0430     1.3710    -0.8620 h4         1 LDN       0.035100
     42 HAL          4.0380    -3.3490     0.8470 h4         1 LDN       0.053800
     43 HAM         -0.5820    -2.5610     0.8330 h4         1 LDN       0.184000
     44 HAN         -8.0770     2.1050     0.8870 h1         1 LDN       0.039950
     45 HANA        -8.4790     2.7170    -0.7210 h1         1 LDN       0.039950
     46 HAO         -9.1400    -1.3060     0.0690 h1         1 LDN       0.039950
     47 HAOA        -8.4650    -0.3010     1.3550 h1         1 LDN       0.039950
     48 HAP         -6.7010     1.4350    -1.7500 h1         1 LDN       0.046700
     49 HAPA        -6.0670     2.3880    -0.4100 h1         1 LDN       0.046700
     50 HAQ         -6.7270    -1.6430     0.4050 h1         1 LDN       0.046700
     51 HAQA        -7.1160    -1.1460    -1.2460 h1         1 LDN       0.046700
     52 HNAU        -9.9160     0.9130    -0.1750 hn         1 LDN       0.360800
     53 HAE         -2.5330    -2.3580    -0.5460 ha         1 LDN       0.130000
@<TRIPOS>BOND
     1     1     2 ar  
     2     1     9 ar  
     3     1    32 1   
     4     2    10 ar  
     5     2    33 1   
     6     3     4 ar  
     7     3    18 ar  
     8     3    34 1   
     9     4    25 ar  
    10     4    35 1   
    11     5     7 ar  
    12     5    22 ar  
    13     5    53 1   
    14     6     8 ar  
    15     6    22 ar  
    16     6    36 1   
    17     7    24 ar  
    18     7    37 1   
    19     8    24 ar  
    20     8    38 1   
    21     9    27 ar  
    22     9    39 1   
    23    10    28 ar  
    24    10    40 1   
    25    11    19 2   
    26    11    23 1   
    27    11    41 1   
    28    12    20 2   
    29    12    26 1   
    30    12    42 1   
    31    13    23 2   
    32    13    31 1   
    33    13    43 1   
    34    14    16 1   
    35    14    21 1   
    36    14    44 1   
    37    14    45 1   
    38    15    17 1   
    39    15    21 1   
    40    15    46 1   
    41    15    47 1   
    42    16    30 1   
    43    16    48 1   
    44    16    49 1   
    45    17    30 1   
    46    17    50 1   
    47    17    51 1   
    48    18    27 ar  
    49    19    29 1   
    50    20    31 1   
    51    21    52 1   
    52    22    23 1   
    53    24    30 1   
    54    25    26 1   
    55    25    28 ar  
    56    26    29 2   
    57    27    28 ar  
    58    29    31 1   
@<TRIPOS>SUBSTRUCTURE
     1 LDN         1 TEMP              0 ****  ****    0 ROOT
