@<TRIPOS>MOLECULE
LDN
   53    58     1     0     0
SMALL
No Charge or Current Charge


@<TRIPOS>ATOM
      1 CAA          5.8070     3.1490     1.2240 ca         1 LDN      -0.102000
      2 CAB          4.6940     2.4980     1.7710 ca         1 LDN      -0.116000
      3 CAC          6.6680    -0.5690    -1.6380 ca         1 LDN       0.351900
      4 CAD          5.5410    -1.2660    -1.1890 ca         1 LDN      -0.172000
      5 CAE         -2.8340    -1.4790    -0.2010 ca         1 LDN      -0.061000
      6 CAF         -2.4430     0.9010    -0.0130 ca         1 LDN      -0.061000
      7 CAG         -4.2210    -1.2460    -0.2170 ca         1 LDN      -0.169500
      8 CAH         -3.8300     1.1260    -0.0300 ca         1 LDN      -0.169500
      9 CAI          6.5550     2.5200     0.2160 ca         1 LDN      -0.088000
     10 CAJ          4.3140     1.2350     1.2920 ca         1 LDN      -0.073000
     11 CAK          0.5210     0.4540    -0.2980 cc         1 LDN       0.379900
     12 CAL          3.2830    -2.8210     0.2340 cc         1 LDN       0.402500
     13 CAM         -0.0020    -1.9130     0.2380 cd         1 LDN      -0.045000
     14 CAN         -8.0930     1.8440    -0.6950 c6         1 LDN       0.149300
     15 CAO         -8.4840    -0.1110     0.7400 c6         1 LDN       0.149300
     16 CAP         -6.7110     1.2630    -1.1480 c6         1 LDN       0.202300
     17 CAQ         -7.1080    -0.7280     0.3140 c6         1 LDN       0.202300
     18 NAR          6.9850     0.6680    -1.2050 nb         1 LDN      -0.663000
     19 NAS          1.8510     0.3700    -0.2680 nd         1 LDN      -0.630000
     20 NAT          2.0270    -3.2370     0.3770 nd         1 LDN      -0.574100
     21 NAU         -9.0690     0.7880    -0.2970 n7         1 LDN      -0.860400
     22 CAV         -1.9120    -0.4080    -0.0940 ca         1 LDN      -0.081000
     23 CAW         -0.4430    -0.6220    -0.0770 cc         1 LDN      -0.116000
     24 CAX         -4.7350     0.0590    -0.1320 ca         1 LDN       0.322000
     25 CAY          4.6690    -0.6660    -0.2650 ca         1 LDN       0.061200
     26 CAZ          3.4640    -1.4130     0.1250 cc         1 LDN      -0.240800
     27 CBA          6.1950     1.2500    -0.2730 ca         1 LDN       0.266000
     28 CBB          5.0320     0.6110     0.2440 ca         1 LDN      -0.063000
     29 CBC          2.1900    -0.9220     0.0780 cd         1 LDN       0.380500
     30 NBD         -6.1280     0.3110    -0.1460 nh         1 LDN      -0.795400
     31 NBE          1.3820    -2.0230     0.2950 na         1 LDN       0.124900
     32 HAA          6.1040     4.1280     1.5940 ha         1 LDN       0.113000
     33 HAB          4.1270     2.9690     2.5710 ha         1 LDN       0.112000
     34 HAC          7.3360    -1.0110    -2.3770 h4         1 LDN       0.016100
     35 HAD          5.3330    -2.2500    -1.5980 ha         1 LDN       0.122000
     36 HAF         -1.7950     1.7650     0.0910 ha         1 LDN       0.112000
     37 HAG         -4.8920    -2.0940    -0.3170 ha         1 LDN       0.117500
     38 HAH         -4.2030     2.1430     0.0560 ha         1 LDN       0.117500
     39 HAI          7.4340     3.0170    -0.1840 ha         1 LDN       0.129000
     40 HAJ          3.4670     0.7420     1.7610 ha         1 LDN       0.119000
     41 HAK          0.1970     1.4540    -0.5470 h4         1 LDN       0.035100
     42 HAL          4.0640    -3.5700     0.2020 h4         1 LDN       0.053800
     43 HAM         -0.5840    -2.7990     0.4500 h4         1 LDN       0.166000
     44 HAN         -7.9260     2.5170     0.1590 h1         1 LDN       0.039950
     45 HANA        -8.5180     2.4500    -1.5090 h1         1 LDN       0.039950
     46 HAO         -9.1920    -0.9220     0.9670 h1         1 LDN       0.039950
     47 HAOA        -8.3370     0.4620     1.6680 h1         1 LDN       0.039950
     48 HAP         -6.8460     0.7450    -2.1090 h1         1 LDN       0.046700
     49 HAPA        -6.0280     2.1050    -1.3330 h1         1 LDN       0.046700
     50 HAQ         -6.7010    -1.2830     1.1720 h1         1 LDN       0.046700
     51 HAQA        -7.2850    -1.4540    -0.4930 h1         1 LDN       0.046700
     52 HNAU        -9.9140     1.2350     0.0820 hn         1 LDN       0.416000
     53 HAE         -2.5020    -2.5070    -0.3060 ha         1 LDN       0.112000
@<TRIPOS>BOND
     1     1     2 ar  
     2     1     9 ar  
     3     1    32 1   
     4     2    10 ar  
     5     2    33 1   
     6     3     4 ar  
     7     3    18 ar  
     8     3    34 1   
     9     4    25 ar  
    10     4    35 1   
    11     5     7 ar  
    12     5    22 ar  
    13     5    53 1   
    14     6     8 ar  
    15     6    22 ar  
    16     6    36 1   
    17     7    24 ar  
    18     7    37 1   
    19     8    24 ar  
    20     8    38 1   
    21     9    27 ar  
    22     9    39 1   
    23    10    28 ar  
    24    10    40 1   
    25    11    19 2   
    26    11    23 1   
    27    11    41 1   
    28    12    20 2   
    29    12    26 1   
    30    12    42 1   
    31    13    23 2   
    32    13    31 1   
    33    13    43 1   
    34    14    16 1   
    35    14    21 1   
    36    14    44 1   
    37    14    45 1   
    38    15    17 1   
    39    15    21 1   
    40    15    46 1   
    41    15    47 1   
    42    16    30 1   
    43    16    48 1   
    44    16    49 1   
    45    17    30 1   
    46    17    50 1   
    47    17    51 1   
    48    18    27 ar  
    49    19    29 1   
    50    20    31 1   
    51    21    52 1   
    52    22    23 1   
    53    24    30 1   
    54    25    26 1   
    55    25    28 ar  
    56    26    29 2   
    57    27    28 ar  
    58    29    31 1   
@<TRIPOS>SUBSTRUCTURE
     1 LDN         1 TEMP              0 ****  ****    0 ROOT
