@<TRIPOS>MOLECULE
LDO
   22    21     1     0     0
SMALL
abcg2


@<TRIPOS>ATOM
      1 N            1.8340     0.2920     1.5370 n8         1 LDO      -0.988200
      2 CA           0.3930     0.4540     1.4270 c3         1 LDO       0.022500
      3 CB          -0.2360    -0.1940     0.1810 c3         1 LDO      -0.101400
      4 CG           0.2830     0.3560    -1.1410 c3         1 LDO      -0.077400
      5 CD          -0.3990    -0.2770    -2.3490 c3         1 LDO      -0.082400
      6 CE           0.1310     0.2800    -3.6550 c3         1 LDO       0.158600
      7 OZ          -0.5310    -0.3470    -4.7340 oh         1 LDO      -0.666000
      8 C           -0.3140    -0.1160     2.6750 c          1 LDO       0.724000
      9 O            0.2850    -1.0010     3.3180 o          1 LDO      -0.732500
     10 OXT         -1.4570     0.3260     2.9120 o          1 LDO      -0.732500
     11 HN1          2.0340    -0.6800     1.7360 hn         1 LDO       0.374000
     12 HN2          2.2830     0.5100     0.6560 hn         1 LDO       0.374000
     13 HA1          0.1780     1.5280     1.3770 h1         1 LDO       0.041700
     14 HB1         -0.0660    -1.2770     0.2170 hc         1 LDO       0.044700
     15 HB2         -1.3200    -0.0500     0.2220 hc         1 LDO       0.044700
     16 HG1          0.1360     1.4420    -1.1640 hc         1 LDO       0.024700
     17 HG2          1.3630     0.1920    -1.2220 hc         1 LDO       0.024700
     18 HD1         -0.2470    -1.3610    -2.3260 hc         1 LDO       0.049200
     19 HD2         -1.4790    -0.1080    -2.2900 hc         1 LDO       0.049200
     20 HE1         -0.0220     1.3680    -3.6720 h1         1 LDO       0.010700
     21 HE2          1.2160     0.1160    -3.7030 h1         1 LDO       0.010700
     22 HOZ         -0.1830     0.0190    -5.5520 ho         1 LDO       0.428000
@<TRIPOS>BOND
     1     1     2 1   
     2     1    11 1   
     3     1    12 1   
     4     2     3 1   
     5     2     8 1   
     6     2    13 1   
     7     3     4 1   
     8     3    14 1   
     9     3    15 1   
    10     4     5 1   
    11     4    16 1   
    12     4    17 1   
    13     5     6 1   
    14     5    18 1   
    15     5    19 1   
    16     6     7 1   
    17     6    20 1   
    18     6    21 1   
    19     7    22 1   
    20     8     9 1   
    21     8    10 1   
@<TRIPOS>SUBSTRUCTURE
     1 LDO         1 TEMP              0 ****  ****    0 ROOT
