@<TRIPOS>MOLECULE
LDO
   22    21     1     0     0
SMALL
No Charge or Current Charge


@<TRIPOS>ATOM
      1 N            1.8690     0.3090     1.5240 n8         1 LDO      -0.988200
      2 CA           0.3670     0.4290     1.4740 c3         1 LDO       0.022500
      3 CB          -0.1820    -0.2720     0.2020 c3         1 LDO      -0.101400
      4 CG           0.2820     0.3590    -1.1350 c3         1 LDO      -0.077400
      5 CD          -0.3430    -0.3220    -2.3730 c3         1 LDO      -0.082400
      6 CE           0.1180     0.3080    -3.7030 c3         1 LDO       0.158600
      7 OZ          -0.5000    -0.3700    -4.8010 oh         1 LDO      -0.666000
      8 C           -0.4240    -0.0460     2.7670 c          1 LDO       0.724000
      9 O           -0.2840    -1.2020     3.1500 o          1 LDO      -0.732500
     10 OXT         -1.0930     0.7800     3.3760 o          1 LDO      -0.732500
     11 HN1          2.1120    -0.6730     1.7040 hn         1 LDO       0.374000
     12 HN2          2.2470     0.4900     0.5880 hn         1 LDO       0.374000
     13 HA1          0.1440     1.5000     1.3640 h1         1 LDO       0.041700
     14 HB1          0.0910    -1.3350     0.2210 hc         1 LDO       0.044700
     15 HB2         -1.2790    -0.2340     0.2370 hc         1 LDO       0.044700
     16 HG1          0.0190     1.4240    -1.1410 hc         1 LDO       0.024700
     17 HG2          1.3750     0.2980    -1.2130 hc         1 LDO       0.024700
     18 HD1         -0.0810    -1.3870    -2.3700 hc         1 LDO       0.049200
     19 HD2         -1.4360    -0.2590    -2.3070 hc         1 LDO       0.049200
     20 HE1         -0.1530     1.3720    -3.7140 h1         1 LDO       0.010700
     21 HE2          1.2110     0.2360    -3.7790 h1         1 LDO       0.010700
     22 HOZ         -0.1770     0.0650    -5.6210 ho         1 LDO       0.428000
@<TRIPOS>BOND
     1     1     2 1   
     2     1    11 1   
     3     1    12 1   
     4     2     3 1   
     5     2     8 1   
     6     2    13 1   
     7     3     4 1   
     8     3    14 1   
     9     3    15 1   
    10     4     5 1   
    11     4    16 1   
    12     4    17 1   
    13     5     6 1   
    14     5    18 1   
    15     5    19 1   
    16     6     7 1   
    17     6    20 1   
    18     6    21 1   
    19     7    22 1   
    20     8     9 1   
    21     8    10 1   
@<TRIPOS>SUBSTRUCTURE
     1 LDO         1 TEMP              0 ****  ****    0 ROOT
