@<TRIPOS>MOLECULE
LDP
   22    22     1     0     0
SMALL
abcg2


@<TRIPOS>ATOM
      1 C7           0.0720    -0.6850     2.1940 c3         1 LDP      -0.031100
      2 C1           0.2130    -0.4780     0.7130 ca         1 LDP      -0.072300
      3 C4           0.4560    -0.0810    -2.0630 ca         1 LDP       0.105100
      4 C2          -0.9120    -0.4300    -0.1110 ca         1 LDP      -0.174000
      5 C6           1.4580    -0.3140     0.1210 ca         1 LDP      -0.103000
      6 C5           1.5780    -0.1220    -1.2520 ca         1 LDP      -0.167000
      7 C3          -0.8080    -0.2350    -1.4800 ca         1 LDP       0.109100
      8 O1          -1.8770    -0.1840    -2.3080 oh         1 LDP      -0.513100
      9 O2           0.5090     0.0790    -3.4070 oh         1 LDP      -0.518100
     10 C8          -0.0910     0.6390     2.9390 c3         1 LDP       0.151800
     11 N1          -0.2400     0.4020     4.3680 n8         1 LDP      -1.002200
     12 H71          0.9490    -1.2050     2.5880 hc         1 LDP       0.053700
     13 H72         -0.7910    -1.3240     2.4000 hc         1 LDP       0.053700
     14 H2          -1.8990    -0.5790     0.3210 ha         1 LDP       0.111000
     15 H6           2.3530    -0.3520     0.7300 ha         1 LDP       0.117000
     16 H5           2.5600    -0.0020    -1.6950 ha         1 LDP       0.116000
     17 HO1         -2.6830    -0.2730    -1.7920 ho         1 LDP       0.456000
     18 HO2          1.3740     0.4120    -3.6660 ho         1 LDP       0.458000
     19 H81         -0.9270     1.2000     2.4980 h1         1 LDP       0.031700
     20 H82          0.8060     1.2430     2.7800 h1         1 LDP       0.031700
     21 HN11        -0.4260     1.2720     4.8480 hn         1 LDP       0.393000
     22 HN12        -1.0540    -0.1800     4.5260 hn         1 LDP       0.393000
@<TRIPOS>BOND
     1     1     2 1   
     2     1    10 1   
     3     1    12 1   
     4     1    13 1   
     5     2     4 ar  
     6     2     5 ar  
     7     3     6 ar  
     8     3     7 ar  
     9     3     9 1   
    10     4     7 ar  
    11     4    14 1   
    12     5     6 ar  
    13     5    15 1   
    14     6    16 1   
    15     7     8 1   
    16     8    17 1   
    17     9    18 1   
    18    10    11 1   
    19    10    19 1   
    20    10    20 1   
    21    11    21 1   
    22    11    22 1   
@<TRIPOS>SUBSTRUCTURE
     1 LDP         1 TEMP              0 ****  ****    0 ROOT
