@<TRIPOS>MOLECULE
LDP
   22    22     1     0     0
SMALL
No Charge or Current Charge


@<TRIPOS>ATOM
      1 C7           0.0400    -0.7090     2.1760 c3         1 LDP      -0.031100
      2 C1           0.1800    -0.4790     0.6760 ca         1 LDP      -0.072300
      3 C4           0.4480    -0.0430    -2.1020 ca         1 LDP       0.105100
      4 C2          -0.9620    -0.4540    -0.1490 ca         1 LDP      -0.174000
      5 C6           1.4520    -0.2830     0.1060 ca         1 LDP      -0.103000
      6 C5           1.5860    -0.0670    -1.2770 ca         1 LDP      -0.167000
      7 C3          -0.8350    -0.2380    -1.5330 ca         1 LDP       0.109100
      8 O1          -1.9630    -0.2190    -2.3110 oh         1 LDP      -0.513100
      9 O2           0.6020     0.1690    -3.4470 oh         1 LDP      -0.518100
     10 C8          -0.0660     0.6180     2.9570 c3         1 LDP       0.151800
     11 N1          -0.1960     0.3960     4.4130 n8         1 LDP      -1.002200
     12 H71          0.9000    -1.2780     2.5490 hc         1 LDP       0.053700
     13 H72         -0.8460    -1.3220     2.3820 hc         1 LDP       0.053700
     14 H2          -1.9450    -0.6010     0.2910 ha         1 LDP       0.111000
     15 H6           2.3390    -0.2980     0.7360 ha         1 LDP       0.117000
     16 H5           2.5770     0.0820    -1.6990 ha         1 LDP       0.116000
     17 HO1         -2.7420    -0.3730    -1.7350 ho         1 LDP       0.456000
     18 HO2          1.5570     0.2790    -3.6390 ho         1 LDP       0.458000
     19 H81         -0.9400     1.1830     2.6060 h1         1 LDP       0.031700
     20 H82          0.8330     1.2230     2.7730 h1         1 LDP       0.031700
     21 HN11        -0.3160     1.3040     4.8800 hn         1 LDP       0.393000
     22 HN12        -1.0830    -0.0870     4.5990 hn         1 LDP       0.393000
@<TRIPOS>BOND
     1     1     2 1   
     2     1    10 1   
     3     1    12 1   
     4     1    13 1   
     5     2     4 ar  
     6     2     5 ar  
     7     3     6 ar  
     8     3     7 ar  
     9     3     9 1   
    10     4     7 ar  
    11     4    14 1   
    12     5     6 ar  
    13     5    15 1   
    14     6    16 1   
    15     7     8 1   
    16     8    17 1   
    17     9    18 1   
    18    10    11 1   
    19    10    19 1   
    20    10    20 1   
    21    11    21 1   
    22    11    22 1   
@<TRIPOS>SUBSTRUCTURE
     1 LDP         1 TEMP              0 ****  ****    0 ROOT
