@<TRIPOS>MOLECULE
LDQ
   38    41     1     0     0
SMALL
bcc


@<TRIPOS>ATOM
      1 C2          16.5240     9.6750    14.9520 c5         1 LDQ      -0.077700
      2 C1          17.9800     9.5600    15.3650 c6         1 LDQ       0.107000
      3 C13         20.0800     6.1070    14.1750 cc         1 LDQ      -0.028000
      4 C12         18.7060     6.2090    13.9000 cc         1 LDQ      -0.272000
      5 C11         18.0150     7.3130    14.3140 cd         1 LDQ       0.098400
      6 C10         16.5370     7.4090    14.0840 c6         1 LDQ      -0.031500
      7 C9          15.7800     6.8970    15.3180 c6         1 LDQ       0.174800
      8 C7          15.4950     9.1900    15.9740 c5         1 LDQ       0.178500
      9 C6          14.1870     9.2840    15.1620 c5         1 LDQ      -0.111400
     10 C5          14.1740    10.1320    12.7510 c3         1 LDQ      -0.086100
     11 C4          14.5900     9.0070    13.6890 c5         1 LDQ      -0.059700
     12 N1          15.8580     7.8480    16.4040 n3         1 LDQ      -0.716600
     13 C3          16.1210     8.8400    13.7440 c5         1 LDQ      -0.060700
     14 C14         20.7190     7.1020    14.8460 cd         1 LDQ      -0.281200
     15 C           20.0200     8.2740    15.2770 c          1 LDQ       0.690700
     16 N           18.6560     8.3170    14.9700 n          1 LDQ      -0.313000
     17 H1          16.3340    10.7340    14.7580 hc         1 LDQ       0.064700
     18 H2          18.0740     9.6730    16.4450 h1         1 LDQ       0.069700
     19 H3          18.5430    10.3780    14.9150 h1         1 LDQ       0.069700
     20 H4          20.6280     5.2320    13.8500 ha         1 LDQ       0.132000
     21 H5          18.1790     5.4240    13.3770 ha         1 LDQ       0.141000
     22 H6          16.2950     6.7400    13.2540 hc         1 LDQ       0.067700
     23 H7          14.7410     6.6800    15.0200 h1         1 LDQ       0.039700
     24 H8          16.2070     5.9440    15.6420 h1         1 LDQ       0.039700
     25 H9          15.2570     8.1100    18.3840 h1         1 LDQ       0.032033
     26 H10         14.0530     7.2640    17.4000 h1         1 LDQ       0.032033
     27 H11         15.5310     6.4370    17.9020 h1         1 LDQ       0.032033
     28 H12         15.4740     9.8300    16.8590 h1         1 LDQ       0.070700
     29 H13         13.7780    10.2920    15.2610 hc         1 LDQ       0.050200
     30 H14         13.4160     8.6010    15.5270 hc         1 LDQ       0.050200
     31 H15         13.0930    10.2770    12.7730 hc         1 LDQ       0.036033
     32 H16         14.6360    11.0790    13.0360 hc         1 LDQ       0.036033
     33 H17         14.4600     9.9180    11.7200 hc         1 LDQ       0.036033
     34 H18         14.1300     8.0790    13.3340 hc         1 LDQ       0.052700
     35 H20         16.6030     9.1540    12.8140 hc         1 LDQ       0.070700
     36 H21         21.7760     7.0460    15.0710 ha         1 LDQ       0.156000
     37 O           20.5410     9.2150    15.8760 o          1 LDQ      -0.650500
     38 C8          15.1330     7.3970    17.5680 c3         1 LDQ       0.159100
@<TRIPOS>BOND
     1     1     2 1   
     2     1     8 1   
     3     1    13 1   
     4     1    17 1   
     5     2    16 1   
     6     2    18 1   
     7     2    19 1   
     8     3     4 1   
     9     3    14 2   
    10     3    20 1   
    11     4     5 2   
    12     4    21 1   
    13     5     6 1   
    14     5    16 1   
    15     6     7 1   
    16     6    13 1   
    17     6    22 1   
    18     7    12 1   
    19     7    23 1   
    20     7    24 1   
    21     8     9 1   
    22     8    12 1   
    23     8    28 1   
    24     9    11 1   
    25     9    29 1   
    26     9    30 1   
    27    10    11 1   
    28    10    31 1   
    29    10    32 1   
    30    10    33 1   
    31    11    13 1   
    32    11    34 1   
    33    12    38 1   
    34    13    35 1   
    35    14    15 1   
    36    14    36 1   
    37    15    16 1   
    38    15    37 2   
    39    25    38 1   
    40    26    38 1   
    41    27    38 1   
@<TRIPOS>SUBSTRUCTURE
     1 LDQ         1 TEMP              0 ****  ****    0 ROOT
