@<TRIPOS>MOLECULE
LDQ
   38    41     1     0     0
SMALL
No Charge or Current Charge


@<TRIPOS>ATOM
      1 C2          16.5060     9.7130    14.9290 c5         1 LDQ      -0.077700
      2 C1          18.0040     9.6290    15.3300 c6         1 LDQ       0.107000
      3 C13         20.1400     6.0390    14.1740 cc         1 LDQ      -0.078000
      4 C12         18.7400     6.1710    13.9310 cc         1 LDQ      -0.322000
      5 C11         18.0510     7.3020    14.3270 cd         1 LDQ       0.098400
      6 C10         16.5500     7.3530    14.0790 c6         1 LDQ      -0.031500
      7 C9          15.8050     6.8280    15.3310 c6         1 LDQ       0.174800
      8 C7          15.4690     9.2530    16.0020 c5         1 LDQ       0.178500
      9 C6          14.1320     9.2590    15.1820 c5         1 LDQ      -0.111400
     10 C5          14.1590    10.2280    12.7650 c3         1 LDQ      -0.086100
     11 C4          14.5590     9.0430    13.6780 c5         1 LDQ      -0.059700
     12 N1          15.7880     7.8420    16.4220 n3         1 LDQ      -0.716600
     13 C3          16.1080     8.8010    13.7520 c5         1 LDQ      -0.060700
     14 C14         20.7860     7.0640    14.8170 cd         1 LDQ      -0.331200
     15 C           20.1010     8.2940    15.2490 c          1 LDQ       0.548200
     16 N           18.7190     8.3660    14.9600 n          1 LDQ      -0.246000
     17 H1          16.3410    10.7700    14.6910 hc         1 LDQ       0.064700
     18 H2          18.1010     9.7970    16.4120 h1         1 LDQ       0.069700
     19 H3          18.5330    10.4570    14.8360 h1         1 LDQ       0.069700
     20 H4          20.6670     5.1370    13.8600 ha         1 LDQ       0.182000
     21 H5          18.2240     5.3510    13.4370 ha         1 LDQ       0.191000
     22 H6          16.2900     6.7100    13.2280 hc         1 LDQ       0.067700
     23 H7          14.7760     6.5650    15.0440 h1         1 LDQ       0.039700
     24 H8          16.2800     5.8970    15.6750 h1         1 LDQ       0.039700
     25 H9          15.1470     8.0820    18.4390 h1         1 LDQ       0.032033
     26 H10         13.9830     7.2360    17.3920 h1         1 LDQ       0.032033
     27 H11         15.4500     6.4010    17.9540 h1         1 LDQ       0.032033
     28 H12         15.4360     9.9370    16.8630 h1         1 LDQ       0.070700
     29 H13         13.6240    10.2220    15.3080 hc         1 LDQ       0.050200
     30 H14         13.4160     8.5030    15.5210 hc         1 LDQ       0.050200
     31 H15         13.0710    10.3580    12.7470 hc         1 LDQ       0.036033
     32 H16         14.6020    11.1720    13.1030 hc         1 LDQ       0.036033
     33 H17         14.4880    10.0550    11.7330 hc         1 LDQ       0.036033
     34 H18         14.0570     8.1640    13.2570 hc         1 LDQ       0.052700
     35 H20         16.6170     9.0780    12.8210 hc         1 LDQ       0.070700
     36 H21         21.8460     7.0280    15.0400 ha         1 LDQ       0.206000
     37 O           20.7070     9.1950    15.8150 o          1 LDQ      -0.575000
     38 C8          15.0510     7.3660    17.6120 c3         1 LDQ       0.159100
@<TRIPOS>BOND
     1     1     2 1   
     2     1     8 1   
     3     1    13 1   
     4     1    17 1   
     5     2    16 1   
     6     2    18 1   
     7     2    19 1   
     8     3     4 1   
     9     3    14 2   
    10     3    20 1   
    11     4     5 2   
    12     4    21 1   
    13     5     6 1   
    14     5    16 1   
    15     6     7 1   
    16     6    13 1   
    17     6    22 1   
    18     7    12 1   
    19     7    23 1   
    20     7    24 1   
    21     8     9 1   
    22     8    12 1   
    23     8    28 1   
    24     9    11 1   
    25     9    29 1   
    26     9    30 1   
    27    10    11 1   
    28    10    31 1   
    29    10    32 1   
    30    10    33 1   
    31    11    13 1   
    32    11    34 1   
    33    12    38 1   
    34    13    35 1   
    35    14    15 1   
    36    14    36 1   
    37    15    16 1   
    38    15    37 2   
    39    25    38 1   
    40    26    38 1   
    41    27    38 1   
@<TRIPOS>SUBSTRUCTURE
     1 LDQ         1 TEMP              0 ****  ****    0 ROOT
