@<TRIPOS>MOLECULE
LDR
   24    26     1     0     0
SMALL
abcg2


@<TRIPOS>ATOM
      1 OAA         -1.4480    -2.7890    -0.0010 o          1 LDR      -0.552000
      2 CAB          3.6400     0.1890    -0.0320 ca         1 LDR      -0.063000
      3 CAC         -3.3840     0.9320     0.0190 ca         1 LDR      -0.127000
      4 CAD          3.1230     1.4840    -0.0230 ca         1 LDR      -0.145000
      5 CAE         -2.5940     2.0820     0.0150 ca         1 LDR      -0.080000
      6 CAF          2.7890    -0.8960    -0.0290 ca         1 LDR      -0.165000
      7 CAG         -2.7790    -0.3060     0.0130 ca         1 LDR      -0.048000
      8 CAH          1.7570     1.6780    -0.0130 ca         1 LDR      -0.057000
      9 CAI         -1.2180     1.9870     0.0050 ca         1 LDR      -0.119000
     10 NAJ          0.5670    -1.7890    -0.0140 ns         1 LDR      -0.383100
     11 CAK         -0.7910    -1.7580    -0.0040 c          1 LDR       0.578600
     12 CAL          1.4080    -0.6960    -0.0170 ca         1 LDR       0.097600
     13 CAM         -1.3860    -0.4120     0.0030 ca         1 LDR      -0.157600
     14 CAN          0.8680     0.5960    -0.0100 ca         1 LDR      -0.091000
     15 CAO         -0.5820     0.7380    -0.0000 ca         1 LDR       0.025000
     16 HAC         -4.4630     1.0120     0.0270 ha         1 LDR       0.120000
     17 HAD          3.7890     2.3360    -0.0260 ha         1 LDR       0.119000
     18 HAE         -3.0610     3.0580     0.0200 ha         1 LDR       0.115000
     19 HAF          3.1850    -1.9050    -0.0350 ha         1 LDR       0.119000
     20 HAG         -3.3810    -1.2050     0.0160 ha         1 LDR       0.138000
     21 HAH          1.3770     2.6900    -0.0060 ha         1 LDR       0.116000
     22 HAI         -0.6350     2.8970     0.0020 ha         1 LDR       0.116000
     23 HNAJ         0.9910    -2.7080    -0.0190 hn         1 LDR       0.327500
     24 HAB          4.7100     0.0300    -0.0410 ha         1 LDR       0.117000
@<TRIPOS>BOND
     1     1    11 2   
     2     2     4 ar  
     3     2     6 ar  
     4     2    24 1   
     5     3     5 ar  
     6     3     7 ar  
     7     3    16 1   
     8     4     8 ar  
     9     4    17 1   
    10     5     9 ar  
    11     5    18 1   
    12     6    12 ar  
    13     6    19 1   
    14     7    13 ar  
    15     7    20 1   
    16     8    14 ar  
    17     8    21 1   
    18     9    15 ar  
    19     9    22 1   
    20    10    11 1   
    21    10    12 1   
    22    10    23 1   
    23    11    13 1   
    24    12    14 ar  
    25    13    15 ar  
    26    14    15 1   
@<TRIPOS>SUBSTRUCTURE
     1 LDR         1 TEMP              0 ****  ****    0 ROOT
