@<TRIPOS>MOLECULE
LDR
   24    26     1     0     0
SMALL
No Charge or Current Charge


@<TRIPOS>ATOM
      1 OAA         -1.4390    -2.8440    -0.0020 o          1 LDR      -0.552000
      2 CAB          3.6700     0.1980    -0.0310 ca         1 LDR      -0.063000
      3 CAC         -3.4070     0.9580     0.0200 ca         1 LDR      -0.127000
      4 CAD          3.1350     1.4930    -0.0250 ca         1 LDR      -0.145000
      5 CAE         -2.6090     2.1070     0.0170 ca         1 LDR      -0.080000
      6 CAF          2.8070    -0.9060    -0.0280 ca         1 LDR      -0.165000
      7 CAG         -2.8050    -0.3070     0.0130 ca         1 LDR      -0.048000
      8 CAH          1.7430     1.6910    -0.0150 ca         1 LDR      -0.057000
      9 CAI         -1.2100     1.9960     0.0070 ca         1 LDR      -0.119000
     10 NAJ          0.5730    -1.8280    -0.0140 ns         1 LDR      -0.383100
     11 CAK         -0.7880    -1.8090    -0.0050 c          1 LDR       0.578600
     12 CAL          1.4160    -0.7130    -0.0180 ca         1 LDR       0.097600
     13 CAM         -1.3990    -0.4340     0.0030 ca         1 LDR      -0.157600
     14 CAN          0.8510     0.5850    -0.0110 ca         1 LDR      -0.091000
     15 CAO         -0.5730     0.7280    -0.0010 ca         1 LDR       0.025000
     16 HAC         -4.4920     1.0460     0.0270 ha         1 LDR       0.120000
     17 HAD          3.8020     2.3520    -0.0280 ha         1 LDR       0.119000
     18 HAE         -3.0760     3.0900     0.0220 ha         1 LDR       0.115000
     19 HAF          3.2210    -1.9110    -0.0330 ha         1 LDR       0.119000
     20 HAG         -3.4380    -1.1940     0.0150 ha         1 LDR       0.138000
     21 HAH          1.3920     2.7160    -0.0100 ha         1 LDR       0.116000
     22 HAI         -0.6470     2.9220     0.0050 ha         1 LDR       0.116000
     23 HNAJ         1.0070    -2.7420    -0.0190 hn         1 LDR       0.327500
     24 HAB          4.7480     0.0500    -0.0390 ha         1 LDR       0.117000
@<TRIPOS>BOND
     1     1    11 2   
     2     2     4 ar  
     3     2     6 ar  
     4     2    24 1   
     5     3     5 ar  
     6     3     7 ar  
     7     3    16 1   
     8     4     8 ar  
     9     4    17 1   
    10     5     9 ar  
    11     5    18 1   
    12     6    12 ar  
    13     6    19 1   
    14     7    13 ar  
    15     7    20 1   
    16     8    14 ar  
    17     8    21 1   
    18     9    15 ar  
    19     9    22 1   
    20    10    11 1   
    21    10    12 1   
    22    10    23 1   
    23    11    13 1   
    24    12    14 ar  
    25    13    15 ar  
    26    14    15 1   
@<TRIPOS>SUBSTRUCTURE
     1 LDR         1 TEMP              0 ****  ****    0 ROOT
