@<TRIPOS>MOLECULE
LDS
   31    32     1     0     0
SMALL
abcg2


@<TRIPOS>ATOM
      1 N1          -5.5110     0.5150    -0.0860 nb         1 LDS      -0.633000
      2 C4           1.3600    -1.0920     0.1510 ca         1 LDS      -0.107000
      3 C5           0.5770     0.0450    -0.0240 ca         1 LDS      -0.061000
      4 C6           1.2190     1.2740    -0.1980 ca         1 LDS      -0.107000
      5 C7           2.6010     1.3400    -0.1930 ca         1 LDS      -0.149000
      6 C8          -1.7890     0.7860    -0.1110 c          1 LDS       0.518600
      7 C10         -4.2840     1.0160    -0.1310 ca         1 LDS       0.347900
      8 N           -0.8120    -0.1320    -0.0170 ns         1 LDS      -0.121000
      9 C            6.9920    -0.2930     0.1240 c3         1 LDS      -0.094100
     10 C1           5.5560    -0.7570     0.1770 c3         1 LDS       0.165600
     11 C11         -5.6230    -0.7990     0.0300 ca         1 LDS       0.306900
     12 C12         -4.5060    -1.6250     0.1030 ca         1 LDS       0.287900
     13 C2           3.3830     0.1990    -0.0170 ca         1 LDS       0.125100
     14 C3           2.7450    -1.0270     0.1560 ca         1 LDS      -0.149000
     15 C9          -3.1660     0.1930    -0.0580 ca         1 LDS       0.231500
     16 N2          -3.2850    -1.1230     0.0600 nb         1 LDS      -0.645000
     17 O1          -1.6340     1.9900    -0.2300 o          1 LDS      -0.584100
     18 H1           0.8850    -2.0570     0.2920 ha         1 LDS       0.129500
     19 H2           0.6550     2.1810    -0.3390 ha         1 LDS       0.129500
     20 H3           3.0850     2.2990    -0.3300 ha         1 LDS       0.123500
     21 H4          -4.1860     2.0890    -0.2250 h4         1 LDS       0.057100
     22 H5          -1.1350    -1.0860     0.0840 hn         1 LDS       0.178000
     23 H6           7.2000     0.4500     0.8940 hc         1 LDS       0.047367
     24 H7           7.6520    -1.1440     0.2940 hc         1 LDS       0.047367
     25 H8           7.2380     0.1330    -0.8480 hc         1 LDS       0.047367
     26 H9           5.3710    -1.5120    -0.5950 h1         1 LDS       0.032200
     27 H10          5.3380    -1.2170     1.1470 h1         1 LDS       0.032200
     28 H11         -6.6210    -1.2190     0.0660 h4         1 LDS       0.035100
     29 H12         -4.6090    -2.6980     0.1980 h4         1 LDS       0.035100
     30 H13          3.3020    -1.9420     0.2970 ha         1 LDS       0.123500
     31 O            4.7180     0.3720    -0.0290 os         1 LDS      -0.348100
@<TRIPOS>BOND
     1     1     7 ar  
     2     1    11 ar  
     3     2     3 ar  
     4     2    14 ar  
     5     2    18 1   
     6     3     4 ar  
     7     3     8 1   
     8     4     5 ar  
     9     4    19 1   
    10     5    13 ar  
    11     5    20 1   
    12     6     8 1   
    13     6    15 1   
    14     6    17 2   
    15     7    15 ar  
    16     7    21 1   
    17     8    22 1   
    18     9    10 1   
    19     9    23 1   
    20     9    24 1   
    21     9    25 1   
    22    10    26 1   
    23    10    27 1   
    24    10    31 1   
    25    11    12 ar  
    26    11    28 1   
    27    12    16 ar  
    28    12    29 1   
    29    13    14 ar  
    30    13    31 1   
    31    14    30 1   
    32    15    16 ar  
@<TRIPOS>SUBSTRUCTURE
     1 LDS         1 TEMP              0 ****  ****    0 ROOT
