@<TRIPOS>MOLECULE
LDS
   31    32     1     0     0
SMALL
No Charge or Current Charge


@<TRIPOS>ATOM
      1 N1          -5.6690     0.5430    -0.1470 nb         1 LDS      -0.633000
      2 C4           1.3740    -1.1110     0.1520 ca         1 LDS      -0.107000
      3 C5           0.5960     0.0520    -0.0080 ca         1 LDS      -0.061000
      4 C6           1.2520     1.2950    -0.1600 ca         1 LDS      -0.107000
      5 C7           2.6570     1.3610    -0.1520 ca         1 LDS      -0.149000
      6 C8          -1.8690     0.8090    -0.1350 c          1 LDS       0.518600
      7 C10         -4.3910     1.0200    -0.1930 ca         1 LDS       0.347900
      8 N           -0.8200    -0.0980    -0.0050 ns         1 LDS      -0.121000
      9 C            7.1220    -0.2770     0.1130 c3         1 LDS      -0.094100
     10 C1           5.6770    -0.8000     0.1630 c3         1 LDS       0.165600
     11 C11         -5.7870    -0.8030     0.0260 ca         1 LDS       0.306900
     12 C12         -4.6580    -1.6550     0.1500 ca         1 LDS       0.287900
     13 C2           3.4270     0.1990     0.0070 ca         1 LDS       0.125100
     14 C3           2.7790    -1.0450     0.1600 ca         1 LDS      -0.149000
     15 C9          -3.2500     0.1780    -0.0700 ca         1 LDS       0.231500
     16 N2          -3.3810    -1.1820     0.1040 nb         1 LDS      -0.645000
     17 O1          -1.7080     2.0180    -0.2900 o          1 LDS      -0.584100
     18 H1           0.8880    -2.0780     0.2710 ha         1 LDS       0.129500
     19 H2           0.6960     2.2180    -0.2860 ha         1 LDS       0.129500
     20 H3           3.1530     2.3210    -0.2700 ha         1 LDS       0.123500
     21 H4          -4.2850     2.0950    -0.3310 h4         1 LDS       0.057100
     22 H5          -1.1330    -1.0540     0.1150 hn         1 LDS       0.178000
     23 H6           7.3010     0.4420     0.9200 hc         1 LDS       0.047367
     24 H7           7.8290    -1.1070     0.2280 hc         1 LDS       0.047367
     25 H8           7.3220     0.2140    -0.8470 hc         1 LDS       0.047367
     26 H9           5.5240    -1.5270    -0.6450 h1         1 LDS       0.032200
     27 H10          5.5030    -1.2980     1.1260 h1         1 LDS       0.032200
     28 H11         -6.7970    -1.2080     0.0660 h4         1 LDS       0.035100
     29 H12         -4.7810    -2.7280     0.2880 h4         1 LDS       0.035100
     30 H13          3.3430    -1.9640     0.2860 ha         1 LDS       0.123500
     31 O            4.8010     0.3290     0.0070 os         1 LDS      -0.348100
@<TRIPOS>BOND
     1     1     7 ar  
     2     1    11 ar  
     3     2     3 ar  
     4     2    14 ar  
     5     2    18 1   
     6     3     4 ar  
     7     3     8 1   
     8     4     5 ar  
     9     4    19 1   
    10     5    13 ar  
    11     5    20 1   
    12     6     8 1   
    13     6    15 1   
    14     6    17 2   
    15     7    15 ar  
    16     7    21 1   
    17     8    22 1   
    18     9    10 1   
    19     9    23 1   
    20     9    24 1   
    21     9    25 1   
    22    10    26 1   
    23    10    27 1   
    24    10    31 1   
    25    11    12 ar  
    26    11    28 1   
    27    12    16 ar  
    28    12    29 1   
    29    13    14 ar  
    30    13    31 1   
    31    14    30 1   
    32    15    16 ar  
@<TRIPOS>SUBSTRUCTURE
     1 LDS         1 TEMP              0 ****  ****    0 ROOT
