@<TRIPOS>MOLECULE
LDT
   35    36     1     0     0
SMALL
No Charge or Current Charge


@<TRIPOS>ATOM
      1 C2          15.8030    -9.7160    18.0470 ca         1 LDT      -0.227000
      2 C3          16.1720   -10.3680    15.3440 ca         1 LDT      -0.016000
      3 C4          16.5750    -8.8720    17.2240 ca         1 LDT       0.228100
      4 C5          15.2130   -10.8670    17.5160 ca         1 LDT       0.206000
      5 C6          15.3990   -11.1990    16.1710 ca         1 LDT      -0.209000
      6 C7          16.7560    -9.1850    15.8510 ca         1 LDT      -0.158600
      7 Br8         14.9200    -4.2910     9.2940 br         1 LDT      -0.120100
      8 F9          14.4800   -11.6740    18.3120 f          1 LDT      -0.192000
      9 C11         17.5350    -8.2960    14.9070 cs         1 LDT       0.439000
     10 C13         18.1240    -5.8770    14.4380 c3         1 LDT       0.136300
     11 F14         19.3260    -5.6220    11.8190 f          1 LDT      -0.180000
     12 O15         17.2410    -7.7970    17.7790 os         1 LDT      -0.355100
     13 S16         18.3670    -8.9100    13.5820 s          1 LDT      -0.716400
     14 N17         17.4810    -6.9590    15.1850 ns         1 LDT      -0.382900
     15 C20         16.6130    -6.9240    18.7550 c3         1 LDT       0.007600
     16 C24         17.3500    -5.4920    13.1780 ca         1 LDT      -0.092300
     17 C25         15.9010    -4.7750    10.8620 ca         1 LDT      -0.000900
     18 C26         15.9670    -5.2200    13.2540 ca         1 LDT      -0.067000
     19 C27         17.9980    -5.3900    11.9270 ca         1 LDT       0.179000
     20 C28         17.2780    -5.0350    10.7750 ca         1 LDT      -0.137000
     21 C29         15.2460    -4.8650    12.1000 ca         1 LDT      -0.102000
     22 C32         15.5260    -6.0110    18.1260 c          1 LDT       0.710000
     23 O33         14.7700    -5.4120    18.8790 o          1 LDT      -0.707500
     24 O34         15.4770    -5.9250    16.9060 o          1 LDT      -0.707500
     25 H2          15.6810    -9.5100    19.1040 ha         1 LDT       0.138000
     26 H3          16.2920   -10.6370    14.2970 ha         1 LDT       0.133000
     27 H6          14.9450   -12.1000    15.7680 ha         1 LDT       0.122000
     28 H131        19.1490    -6.1820    14.1910 h1         1 LDT       0.079700
     29 H132        18.1950    -4.9990    15.0930 h1         1 LDT       0.079700
     30 H17         16.8830    -6.6940    15.9720 hn         1 LDT       0.412500
     31 H201        17.3680    -6.2570    19.1870 h1         1 LDT       0.046200
     32 H202        16.1670    -7.4870    19.5830 h1         1 LDT       0.046200
     33 H26         15.4470    -5.2820    14.2080 ha         1 LDT       0.143000
     34 H28         17.7890    -4.9600     9.8190 ha         1 LDT       0.135000
     35 H29         14.1800    -4.6590    12.1680 ha         1 LDT       0.128000
@<TRIPOS>BOND
     1     1     3 ar  
     2     1     4 ar  
     3     1    25 1   
     4     2     5 ar  
     5     2     6 ar  
     6     2    26 1   
     7     3     6 ar  
     8     3    12 1   
     9     4     5 ar  
    10     4     8 1   
    11     5    27 1   
    12     6     9 1   
    13     7    17 1   
    14     9    13 2   
    15     9    14 1   
    16    10    14 1   
    17    10    16 1   
    18    10    28 1   
    19    10    29 1   
    20    11    19 1   
    21    12    15 1   
    22    14    30 1   
    23    15    22 1   
    24    15    31 1   
    25    15    32 1   
    26    16    18 ar  
    27    16    19 ar  
    28    17    20 ar  
    29    17    21 ar  
    30    18    21 ar  
    31    18    33 1   
    32    19    20 ar  
    33    20    34 1   
    34    21    35 1   
    35    22    23 1   
    36    22    24 1   
@<TRIPOS>SUBSTRUCTURE
     1 LDT         1 TEMP              0 ****  ****    0 ROOT
