@<TRIPOS>MOLECULE
LDT
   35    36     1     0     0
SMALL
bcc


@<TRIPOS>ATOM
      1 C2          15.8300    -9.6790    18.0720 ca         1 LDT      -0.245000
      2 C3          15.8860   -10.0450    15.3270 ca         1 LDT      -0.034000
      3 C4          16.6240    -8.8510    17.2810 ca         1 LDT       0.228100
      4 C5          15.0740   -10.6590    17.4620 ca         1 LDT       0.170900
      5 C6          15.0840   -10.8690    16.0980 ca         1 LDT      -0.227000
      6 C7          16.6420    -9.0190    15.8880 ca         1 LDT      -0.158600
      7 BR8         15.2160    -4.6530     9.0010 br         1 LDT      -0.120100
      8 F9          14.3110   -11.4440    18.2350 f          1 LDT      -0.156900
      9 C11         17.4150    -8.1210    14.9910 cs         1 LDT       0.506000
     10 C13         17.9220    -5.8100    14.4470 c3         1 LDT       0.136300
     11 F14         19.2650    -4.7760    12.2020 f          1 LDT      -0.144900
     12 O15         17.4530    -7.9350    17.8150 os         1 LDT      -0.331900
     13 S16         18.3590    -8.7490    13.7630 s          1 LDT      -0.716400
     14 N17         17.2660    -6.8310    15.2190 ns         1 LDT      -0.449900
     15 C20         16.9700    -7.1210    18.8720 c3         1 LDT      -0.015600
     16 C24         17.2500    -5.5560    13.1170 ca         1 LDT      -0.092300
     17 C25         16.0350    -5.0130    10.6600 ca         1 LDT      -0.000900
     18 C26         15.8970    -5.7950    12.9130 ca         1 LDT      -0.085000
     19 C27         17.9570    -5.0300    12.0470 ca         1 LDT       0.143900
     20 C28         17.3870    -4.7520    10.8200 ca         1 LDT      -0.155000
     21 C29         15.2790    -5.5330    11.6990 ca         1 LDT      -0.120000
     22 C32         15.8500    -6.1550    18.4470 c          1 LDT       0.920600
     23 O33         15.2790    -5.5760    19.3770 o          1 LDT      -0.812800
     24 O34         15.6330    -6.0170    17.2190 o          1 LDT      -0.812800
     25 H2          15.8130    -9.5870    19.1500 ha         1 LDT       0.156000
     26 H3          15.9120   -10.1820    14.2550 ha         1 LDT       0.151000
     27 H6          14.4840   -11.6480    15.6470 ha         1 LDT       0.140000
     28 H131        18.9670    -6.0830    14.2980 h1         1 LDT       0.079700
     29 H132        17.9050    -4.8950    15.0420 h1         1 LDT       0.079700
     30 H17         16.6490    -6.5230    16.0020 hn         1 LDT       0.412500
     31 H201        17.8320    -6.5380    19.2040 h1         1 LDT       0.046200
     32 H202        16.6460    -7.7140    19.7310 h1         1 LDT       0.046200
     33 H26         15.3030    -6.2060    13.7190 ha         1 LDT       0.161000
     34 H28         17.9950    -4.3460    10.0220 ha         1 LDT       0.153000
     35 H29         14.2250    -5.7360    11.5770 ha         1 LDT       0.146000
@<TRIPOS>BOND
     1     1     3 ar  
     2     1     4 ar  
     3     1    25 1   
     4     2     5 ar  
     5     2     6 ar  
     6     2    26 1   
     7     3     6 ar  
     8     3    12 1   
     9     4     5 ar  
    10     4     8 1   
    11     5    27 1   
    12     6     9 1   
    13     7    17 1   
    14     9    13 2   
    15     9    14 1   
    16    10    14 1   
    17    10    16 1   
    18    10    28 1   
    19    10    29 1   
    20    11    19 1   
    21    12    15 1   
    22    14    30 1   
    23    15    22 1   
    24    15    31 1   
    25    15    32 1   
    26    16    18 ar  
    27    16    19 ar  
    28    17    20 ar  
    29    17    21 ar  
    30    18    21 ar  
    31    18    33 1   
    32    19    20 ar  
    33    20    34 1   
    34    21    35 1   
    35    22    23 1   
    36    22    24 1   
@<TRIPOS>SUBSTRUCTURE
     1 LDT         1 TEMP              0 ****  ****    0 ROOT
