@<TRIPOS>MOLECULE
LDV
   37    39     1     0     0
SMALL
abcg2


@<TRIPOS>ATOM
      1 N1          -1.3280     0.1250     0.6840 n3         1 LDV      -0.722600
      2 C4          -2.5310     0.5840     1.3530 c6         1 LDV       0.169800
      3 C5          -1.6460    -0.6570    -0.4960 c6         1 LDV       0.169800
      4 C6          -2.4490     0.1690    -1.4890 c6         1 LDV      -0.070400
      5 C7          -0.4510    -0.5740     1.6040 c3         1 LDV       0.248000
      6 C8           0.8730    -0.9070     1.0010 cc         1 LDV      -0.141400
      7 C10          2.8890    -0.7660    -0.0740 ca         1 LDV      -0.050200
      8 C13          2.6720     1.8630    -0.8670 ca         1 LDV      -0.150000
      9 C15          3.9390    -0.2090    -0.8040 ca         1 LDV      -0.136000
     10 C1          -4.7940    -0.3520    -0.6730 c3         1 LDV      -0.087100
     11 C11          1.7340    -0.0260     0.2670 ca         1 LDV      -0.085800
     12 C12          1.6320     1.3070    -0.1480 ca         1 LDV      -0.045000
     13 C14          3.8150     1.1120    -1.1910 ca         1 LDV      -0.090000
     14 C2          -3.7330     0.7270    -0.8710 c6         1 LDV      -0.060700
     15 C3          -3.3740     1.4490     0.4290 c6         1 LDV      -0.070400
     16 C9           1.5210    -2.1070     1.0620 cd         1 LDV      -0.163100
     17 N2           2.7290    -2.0250     0.4260 na         1 LDV      -0.225700
     18 H2          -3.1300    -0.2630     1.7350 h1         1 LDV       0.030200
     19 H3          -2.2380     1.1660     2.2310 h1         1 LDV       0.030200
     20 H4          -0.7160    -0.9830    -0.9650 h1         1 LDV       0.030200
     21 H5          -2.1940    -1.5790    -0.2290 h1         1 LDV       0.030200
     22 H6          -1.8230     0.9990    -1.8290 hc         1 LDV       0.044950
     23 H7          -2.6790    -0.4390    -2.3680 hc         1 LDV       0.044950
     24 H8          -0.3070     0.0820     2.4700 h1         1 LDV       0.031200
     25 H9          -0.9100    -1.4990     1.9970 h1         1 LDV       0.031200
     26 H10          2.6070     2.8930    -1.1960 ha         1 LDV       0.109000
     27 H11          4.8160    -0.7880    -1.0620 ha         1 LDV       0.110000
     28 H12         -4.4530    -1.1690    -0.0340 hc         1 LDV       0.030367
     29 H13         -5.6960     0.0610    -0.2160 hc         1 LDV       0.030367
     30 H14         -5.0820    -0.7910    -1.6300 hc         1 LDV       0.030367
     31 H15          0.7410     1.8770     0.0810 ha         1 LDV       0.130000
     32 H16          4.6120     1.5750    -1.7580 ha         1 LDV       0.107000
     33 H17         -4.1520     1.4670    -1.5610 hc         1 LDV       0.043700
     34 H18         -4.2770     1.7700     0.9540 hc         1 LDV       0.044950
     35 H19         -2.8060     2.3530     0.1900 hc         1 LDV       0.044950
     36 H20          1.2050    -3.0310     1.5210 h4         1 LDV       0.209000
     37 H21          3.3840    -2.7830     0.3330 hn         1 LDV       0.349000
@<TRIPOS>BOND
     1     1     2 1   
     2     1     3 1   
     3     1     5 1   
     4     2    15 1   
     5     2    18 1   
     6     2    19 1   
     7     3     4 1   
     8     3    20 1   
     9     3    21 1   
    10     4    14 1   
    11     4    22 1   
    12     4    23 1   
    13     5     6 1   
    14     5    24 1   
    15     5    25 1   
    16     6    11 1   
    17     6    16 2   
    18     7     9 ar  
    19     7    11 ar  
    20     7    17 1   
    21     8    12 ar  
    22     8    13 ar  
    23     8    26 1   
    24     9    13 ar  
    25     9    27 1   
    26    10    14 1   
    27    10    28 1   
    28    10    29 1   
    29    10    30 1   
    30    11    12 ar  
    31    12    31 1   
    32    13    32 1   
    33    14    15 1   
    34    14    33 1   
    35    15    34 1   
    36    15    35 1   
    37    16    17 1   
    38    16    36 1   
    39    17    37 1   
@<TRIPOS>SUBSTRUCTURE
     1 LDV         1 TEMP              0 ****  ****    0 ROOT
