@<TRIPOS>MOLECULE
LDV
   37    39     1     0     0
SMALL
No Charge or Current Charge


@<TRIPOS>ATOM
      1 N1          -1.3370     0.1900     0.5940 n3         1 LDV      -0.722600
      2 C4          -2.5370     0.7420     1.2790 c6         1 LDV       0.169800
      3 C5          -1.7150    -0.7140    -0.5310 c6         1 LDV       0.169800
      4 C6          -2.6200     0.0050    -1.5640 c6         1 LDV      -0.070400
      5 C7          -0.3930    -0.4400     1.5480 c3         1 LDV       0.248000
      6 C8           0.9150    -0.8600     0.9200 cc         1 LDV      -0.141400
      7 C10          2.9230    -0.7810    -0.1280 ca         1 LDV      -0.050200
      8 C13          2.9780     1.9740    -0.5460 ca         1 LDV      -0.150000
      9 C15          4.0330    -0.2270    -0.7800 ca         1 LDV      -0.136000
     10 C1          -4.9220    -0.4810    -0.4970 c3         1 LDV      -0.087100
     11 C11          1.8860    -0.0010     0.3000 ca         1 LDV      -0.085800
     12 C12          1.8730     1.3880     0.1070 ca         1 LDV      -0.045000
     13 C14          4.0560     1.1690    -0.9880 ca         1 LDV      -0.090000
     14 C2          -3.8890     0.6090    -0.9050 c6         1 LDV      -0.060700
     15 C3          -3.4630     1.5000     0.2920 c6         1 LDV      -0.070400
     16 C9           1.4360    -2.1490     0.8270 cd         1 LDV      -0.163100
     17 N2           2.6920    -2.1100     0.1740 na         1 LDV      -0.225700
     18 H2          -3.1050    -0.0660     1.7640 h1         1 LDV       0.030200
     19 H3          -2.2320     1.4390     2.0730 h1         1 LDV       0.030200
     20 H4          -0.8170    -1.0720    -1.0560 h1         1 LDV       0.030200
     21 H5          -2.2350    -1.6040    -0.1460 h1         1 LDV       0.030200
     22 H6          -2.0430     0.8060    -2.0460 hc         1 LDV       0.044950
     23 H7          -2.9010    -0.6940    -2.3630 hc         1 LDV       0.044950
     24 H8          -0.1630     0.2650     2.3590 h1         1 LDV       0.031200
     25 H9          -0.8610    -1.3200     2.0110 h1         1 LDV       0.031200
     26 H10          3.0010     3.0480    -0.7120 ha         1 LDV       0.109000
     27 H11          4.8550    -0.8540    -1.1180 ha         1 LDV       0.110000
     28 H12         -4.5190    -1.1780     0.2460 hc         1 LDV       0.030367
     29 H13         -5.8240    -0.0260    -0.0690 hc         1 LDV       0.030367
     30 H14         -5.2350    -1.0700    -1.3670 hc         1 LDV       0.030367
     31 H15          1.0360     1.9930     0.4480 ha         1 LDV       0.130000
     32 H16          4.9040     1.6280    -1.4920 ha         1 LDV       0.107000
     33 H17         -4.3970     1.2420    -1.6460 hc         1 LDV       0.043700
     34 H18         -4.3490     1.8730     0.8240 hc         1 LDV       0.044950
     35 H19         -2.9350     2.3870    -0.0830 hc         1 LDV       0.044950
     36 H20          1.0050    -3.0830     1.1790 h4         1 LDV       0.209000
     37 H21          3.3010    -2.8980    -0.0330 hn         1 LDV       0.349000
@<TRIPOS>BOND
     1     1     2 1   
     2     1     3 1   
     3     1     5 1   
     4     2    15 1   
     5     2    18 1   
     6     2    19 1   
     7     3     4 1   
     8     3    20 1   
     9     3    21 1   
    10     4    14 1   
    11     4    22 1   
    12     4    23 1   
    13     5     6 1   
    14     5    24 1   
    15     5    25 1   
    16     6    11 1   
    17     6    16 2   
    18     7     9 ar  
    19     7    11 ar  
    20     7    17 1   
    21     8    12 ar  
    22     8    13 ar  
    23     8    26 1   
    24     9    13 ar  
    25     9    27 1   
    26    10    14 1   
    27    10    28 1   
    28    10    29 1   
    29    10    30 1   
    30    11    12 ar  
    31    12    31 1   
    32    13    32 1   
    33    14    15 1   
    34    14    33 1   
    35    15    34 1   
    36    15    35 1   
    37    16    17 1   
    38    16    36 1   
    39    17    37 1   
@<TRIPOS>SUBSTRUCTURE
     1 LDV         1 TEMP              0 ****  ****    0 ROOT
