@<TRIPOS>MOLECULE
LDW
   24    25     1     0     0
SMALL
abcg2


@<TRIPOS>ATOM
      1 C2         -14.8600   -17.1650   -21.2900 ca         1 LDW       0.596900
      2 C3         -16.1120   -17.8060   -21.2270 ca         1 LDW      -0.222000
      3 C12        -16.4670   -22.8920   -25.5110 ca         1 LDW      -0.119000
      4 C13        -15.9330   -22.5600   -24.2770 ca         1 LDW      -0.135000
      5 C14        -13.9150   -19.0010   -22.2820 ca         1 LDW       0.388900
      6 N1         -14.6900   -15.9140   -20.7760 nv         1 LDW      -1.048900
      7 C4         -16.2280   -19.0850   -21.7190 ca         1 LDW      -0.045000
      8 C5         -15.1020   -19.7030   -22.2580 ca         1 LDW      -0.020900
      9 O6         -15.1520   -20.9930   -22.7240 os         1 LDW      -0.235200
     10 C7         -15.6980   -21.2270   -23.9510 ca         1 LDW       0.116100
     11 C8         -16.0040   -20.2240   -24.8640 ca         1 LDW      -0.135000
     12 C9         -16.5430   -20.5570   -26.1010 ca         1 LDW      -0.119000
     13 C10        -16.7660   -21.8830   -26.4060 ca         1 LDW       0.137000
     14 F11        -17.2860   -22.2030   -27.6040 f          1 LDW      -0.180000
     15 N15        -13.7920   -17.7650   -21.8080 nb         1 LDW      -0.736000
     16 H1         -16.9670   -17.2990   -20.8000 ha         1 LDW       0.125000
     17 H3         -15.6940   -23.3390   -23.5640 ha         1 LDW       0.130000
     18 H4         -13.0220   -19.4560   -22.6970 h4         1 LDW       0.032100
     19 H5         -13.8760   -15.4090   -21.0870 hn         1 LDW       0.473000
     20 H6         -15.5100   -15.3430   -20.6600 hn         1 LDW       0.473000
     21 H7         -17.1790   -19.6010   -21.6840 ha         1 LDW       0.131000
     22 H8         -15.8270   -19.1830   -24.6350 ha         1 LDW       0.130000
     23 H9         -16.7810   -19.7800   -26.8160 ha         1 LDW       0.132500
     24 H2         -16.6500   -23.9270   -25.7680 ha         1 LDW       0.132500
@<TRIPOS>BOND
     1     1     2 ar  
     2     1     6 1   
     3     1    15 ar  
     4     2     7 ar  
     5     2    16 1   
     6     3     4 ar  
     7     3    13 ar  
     8     3    24 1   
     9     4    10 ar  
    10     4    17 1   
    11     5     8 ar  
    12     5    15 ar  
    13     5    18 1   
    14     6    19 1   
    15     6    20 1   
    16     7     8 ar  
    17     7    21 1   
    18     8     9 1   
    19     9    10 1   
    20    10    11 ar  
    21    11    12 ar  
    22    11    22 1   
    23    12    13 ar  
    24    12    23 1   
    25    13    14 1   
@<TRIPOS>SUBSTRUCTURE
     1 LDW         1 TEMP              0 ****  ****    0 ROOT
