@<TRIPOS>MOLECULE
LDW
   24    25     1     0     0
SMALL
No Charge or Current Charge


@<TRIPOS>ATOM
      1 C2         -14.9390   -17.2070   -21.0880 ca         1 LDW       0.596900
      2 C3         -16.1360   -17.7990   -21.5050 ca         1 LDW      -0.222000
      3 C12        -16.6860   -22.9240   -25.3100 ca         1 LDW      -0.119000
      4 C13        -15.8590   -22.4980   -24.2540 ca         1 LDW      -0.135000
      5 C14        -13.6610   -18.8760   -21.9800 ca         1 LDW       0.388900
      6 N1         -14.8800   -16.0530   -20.4210 nv         1 LDW      -1.048900
      7 C4         -16.0740   -19.0140   -22.2070 ca         1 LDW      -0.045000
      8 C5         -14.8000   -19.5620   -22.4600 ca         1 LDW      -0.020900
      9 O6         -14.6510   -20.7600   -23.1290 os         1 LDW      -0.235200
     10 C7         -15.4720   -21.1500   -24.1630 ca         1 LDW       0.116100
     11 C8         -15.8950   -20.2270   -25.1420 ca         1 LDW      -0.135000
     12 C9         -16.7230   -20.6540   -26.1980 ca         1 LDW      -0.119000
     13 C10        -17.1170   -22.0000   -26.2760 ca         1 LDW       0.137000
     14 F11        -17.9110   -22.4090   -27.2900 f          1 LDW      -0.180000
     15 N15        -13.7270   -17.7010   -21.3020 nb         1 LDW      -0.736000
     16 H1         -17.0910   -17.3320   -21.2850 ha         1 LDW       0.125000
     17 H3         -15.5200   -23.2090   -23.5050 ha         1 LDW       0.130000
     18 H4         -12.6630   -19.2800   -22.1490 h4         1 LDW       0.032100
     19 H5         -13.9620   -15.6260   -20.3880 hn         1 LDW       0.473000
     20 H6         -15.6720   -15.4240   -20.4940 hn         1 LDW       0.473000
     21 H7         -16.9830   -19.5140   -22.5370 ha         1 LDW       0.131000
     22 H8         -15.5820   -19.1870   -25.0890 ha         1 LDW       0.130000
     23 H9         -17.0550   -19.9460   -26.9540 ha         1 LDW       0.132500
     24 H2         -16.9920   -23.9650   -25.3820 ha         1 LDW       0.132500
@<TRIPOS>BOND
     1     1     2 ar  
     2     1     6 1   
     3     1    15 ar  
     4     2     7 ar  
     5     2    16 1   
     6     3     4 ar  
     7     3    13 ar  
     8     3    24 1   
     9     4    10 ar  
    10     4    17 1   
    11     5     8 ar  
    12     5    15 ar  
    13     5    18 1   
    14     6    19 1   
    15     6    20 1   
    16     7     8 ar  
    17     7    21 1   
    18     8     9 1   
    19     9    10 1   
    20    10    11 ar  
    21    11    12 ar  
    22    11    22 1   
    23    12    13 ar  
    24    12    23 1   
    25    13    14 1   
@<TRIPOS>SUBSTRUCTURE
     1 LDW         1 TEMP              0 ****  ****    0 ROOT
