@<TRIPOS>MOLECULE
LDX
   34    35     1     0     0
SMALL
No Charge or Current Charge


@<TRIPOS>ATOM
      1 N1           9.1040    -0.3200    20.5370 ns         1 LDX      -0.153000
      2 C4           8.2550     0.6950    18.4110 ca         1 LDX       0.329900
      3 C5           8.0790     0.3040    19.7640 ca         1 LDX      -0.078000
      4 C6          10.3990    -0.7110    20.2230 c          1 LDX       0.601100
      5 C7          11.1620    -1.3610    21.3840 c3         1 LDX      -0.155400
      6 C8          12.2540    -0.4200    21.9440 c3         1 LDX      -0.015100
      7 C10         12.5920    -0.7770    24.4360 ca         1 LDX      -0.085000
      8 C13         14.7760    -2.4880    23.9900 ca         1 LDX      -0.145000
      9 C14         14.1000    -1.9120    22.9030 ca         1 LDX       0.168000
     10 C12         14.3630    -2.2090    25.3040 ca         1 LDX      -0.084000
     11 C11         13.2700    -1.3540    25.5240 ca         1 LDX      -0.124000
     12 C9          13.0020    -1.0490    23.1150 ca         1 LDX      -0.121300
     13 O           10.9050    -0.5870    19.1150 o          1 LDX      -0.576100
     14 C1           6.8260     0.5510    20.3710 ca         1 LDX      -0.087300
     15 C            6.5440     0.1680    21.8210 c3         1 LDX      -0.050800
     16 N            7.2860     1.2890    17.6730 nb         1 LDX      -0.645000
     17 C3           6.0940     1.5180    18.2650 ca         1 LDX       0.313900
     18 C2           5.8250     1.1680    19.5980 ca         1 LDX      -0.143000
     19 H1           8.8370    -0.5080    21.4940 hn         1 LDX       0.151000
     20 H2           9.1930     0.5400    17.8850 h4         1 LDX       0.047100
     21 H3          10.4700    -1.6100    22.1970 hc         1 LDX       0.065700
     22 H4          11.6460    -2.2740    21.0170 hc         1 LDX       0.065700
     23 H5          12.9550    -0.1550    21.1420 hc         1 LDX       0.067700
     24 H6          11.7890     0.5240    22.2570 hc         1 LDX       0.067700
     25 H7          11.7450    -0.1190    24.6220 ha         1 LDX       0.115000
     26 H8          15.6200    -3.1500    23.8120 ha         1 LDX       0.134000
     27 H9          14.8860    -2.6550    26.1470 ha         1 LDX       0.119000
     28 H10         12.9470    -1.1390    26.5410 ha         1 LDX       0.119000
     29 H11          6.6610    -0.9110    21.9750 hc         1 LDX       0.045700
     30 H12          7.2270     0.6840    22.5060 hc         1 LDX       0.045700
     31 H13          5.5220     0.4310    22.1190 hc         1 LDX       0.045700
     32 H14          5.3310     1.9960    17.6520 h4         1 LDX       0.022100
     33 H15          4.8450     1.3790    20.0170 ha         1 LDX       0.121000
     34 F           14.5130    -2.1970    21.6470 f          1 LDX      -0.183000
@<TRIPOS>BOND
     1     1     3 1   
     2     1     4 1   
     3     1    19 1   
     4     2     3 ar  
     5     2    16 ar  
     6     2    20 1   
     7     3    14 ar  
     8     4     5 1   
     9     4    13 2   
    10     5     6 1   
    11     5    21 1   
    12     5    22 1   
    13     6    12 1   
    14     6    23 1   
    15     6    24 1   
    16     7    11 ar  
    17     7    12 ar  
    18     7    25 1   
    19     8     9 ar  
    20     8    10 ar  
    21     8    26 1   
    22     9    12 ar  
    23     9    34 1   
    24    10    11 ar  
    25    10    27 1   
    26    11    28 1   
    27    14    15 1   
    28    14    18 ar  
    29    15    29 1   
    30    15    30 1   
    31    15    31 1   
    32    16    17 ar  
    33    17    18 ar  
    34    17    32 1   
    35    18    33 1   
@<TRIPOS>SUBSTRUCTURE
     1 LDX         1 TEMP              0 ****  ****    0 ROOT
