@<TRIPOS>MOLECULE
LDX
   34    35     1     0     0
SMALL
abcg2


@<TRIPOS>ATOM
      1 N1           8.9980    -0.4150    20.5860 ns         1 LDX      -0.153000
      2 C4           8.2490     0.3770    18.3880 ca         1 LDX       0.329900
      3 C5           8.0310     0.1760    19.7530 ca         1 LDX      -0.078000
      4 C6          10.3560    -0.3820    20.4510 c          1 LDX       0.601100
      5 C7          11.1160    -1.1210    21.5340 c3         1 LDX      -0.155400
      6 C8          12.2290    -0.2470    22.1370 c3         1 LDX      -0.015100
      7 C10         12.7660    -0.7790    24.5570 ca         1 LDX      -0.085000
      8 C13         14.7060    -2.6230    23.8080 ca         1 LDX      -0.145000
      9 C14         13.9820    -1.9110    22.8700 ca         1 LDX       0.168000
     10 C12         14.4440    -2.4000    25.1560 ca         1 LDX      -0.084000
     11 C11         13.4730    -1.4770    25.5310 ca         1 LDX      -0.124000
     12 C9          13.0050    -0.9790    23.1970 ca         1 LDX      -0.121300
     13 O           10.9300     0.1920    19.5330 o          1 LDX      -0.576100
     14 C1           6.7950     0.5460    20.3070 ca         1 LDX      -0.087300
     15 C            6.4930     0.3550    21.7640 c3         1 LDX      -0.050800
     16 N            7.3410     0.9190    17.5750 nb         1 LDX      -0.645000
     17 C3           6.1670     1.2760    18.1010 ca         1 LDX       0.313900
     18 C2           5.8590     1.1030    19.4420 ca         1 LDX      -0.143000
     19 H1           8.6520    -0.8600    21.4220 hn         1 LDX       0.151000
     20 H2           9.1910     0.0880    17.9480 h4         1 LDX       0.047100
     21 H3          10.4460    -1.4660    22.3220 hc         1 LDX       0.065700
     22 H4          11.5570    -2.0070    21.0690 hc         1 LDX       0.065700
     23 H5          12.8930     0.0780    21.3360 hc         1 LDX       0.067700
     24 H6          11.7840     0.6460    22.5780 hc         1 LDX       0.067700
     25 H7          12.0110    -0.0580    24.8490 ha         1 LDX       0.115000
     26 H8          15.4560    -3.3320    23.4830 ha         1 LDX       0.134000
     27 H9          15.0000    -2.9470    25.9070 ha         1 LDX       0.119000
     28 H10         13.2670    -1.2990    26.5780 ha         1 LDX       0.119000
     29 H11          6.4730    -0.7060    22.0290 hc         1 LDX       0.045700
     30 H12          7.2540     0.8300    22.3890 hc         1 LDX       0.045700
     31 H13          5.5230     0.7810    22.0130 hc         1 LDX       0.045700
     32 H14          5.4410     1.7130    17.4230 h4         1 LDX       0.022100
     33 H15          4.8910     1.4080    19.8200 ha         1 LDX       0.121000
     34 F           14.2450    -2.1360    21.5530 f          1 LDX      -0.183000
@<TRIPOS>BOND
     1     1     3 1   
     2     1     4 1   
     3     1    19 1   
     4     2     3 ar  
     5     2    16 ar  
     6     2    20 1   
     7     3    14 ar  
     8     4     5 1   
     9     4    13 2   
    10     5     6 1   
    11     5    21 1   
    12     5    22 1   
    13     6    12 1   
    14     6    23 1   
    15     6    24 1   
    16     7    11 ar  
    17     7    12 ar  
    18     7    25 1   
    19     8     9 ar  
    20     8    10 ar  
    21     8    26 1   
    22     9    12 ar  
    23     9    34 1   
    24    10    11 ar  
    25    10    27 1   
    26    11    28 1   
    27    14    15 1   
    28    14    18 ar  
    29    15    29 1   
    30    15    30 1   
    31    15    31 1   
    32    16    17 ar  
    33    17    18 ar  
    34    17    32 1   
    35    18    33 1   
@<TRIPOS>SUBSTRUCTURE
     1 LDX         1 TEMP              0 ****  ****    0 ROOT
