@<TRIPOS>MOLECULE
LDY
   20    20     1     0     0
SMALL
No Charge or Current Charge


@<TRIPOS>ATOM
      1 C5          35.2510    25.8960   -41.8300 c6         1 LDY       0.133600
      2 O5          34.3790    27.0380   -41.6420 os         1 LDY      -0.474000
      3 C1          34.5510    28.0330   -42.6530 c6         1 LDY       0.361300
      4 C2          34.1990    27.4590   -44.0710 c6         1 LDY       0.109300
      5 O2          34.4110    28.4480   -45.1140 oh         1 LDY      -0.733000
      6 C3          35.0420    26.1760   -44.3560 c6         1 LDY       0.182300
      7 O3          36.4100    26.5610   -44.5900 oh         1 LDY      -0.733000
      8 C4          34.9140    25.1630   -43.1680 c6         1 LDY       0.136300
      9 O4          33.5740    24.6190   -43.1260 oh         1 LDY      -0.712000
     10 O1          33.6650    29.0730   -42.2930 oh         1 LDY      -0.710000
     11 H51         35.1300    25.2090   -40.9820 h1         1 LDY       0.057200
     12 H52         36.2990    26.2340   -41.8350 h1         1 LDY       0.057200
     13 H1          35.5890    28.4000   -42.6360 h2         1 LDY       0.031700
     14 H2          33.1390    27.1610   -44.0500 h1         1 LDY       0.081700
     15 HO2         33.9620    29.2700   -44.7960 ho         1 LDY       0.526000
     16 H3          34.6370    25.6940   -45.2590 h1         1 LDY       0.067700
     17 HO3         36.3280    27.3960   -45.1140 ho         1 LDY       0.529000
     18 H4          35.6430    24.3520   -43.3180 h1         1 LDY       0.057700
     19 HO4         33.5020    24.0850   -42.3000 ho         1 LDY       0.511000
     20 HO1         33.3950    28.8200   -41.3820 ho         1 LDY       0.521000
@<TRIPOS>BOND
     1     1     2 1   
     2     1     8 1   
     3     1    11 1   
     4     1    12 1   
     5     2     3 1   
     6     3     4 1   
     7     3    10 1   
     8     3    13 1   
     9     4     5 1   
    10     4     6 1   
    11     4    14 1   
    12     5    15 1   
    13     6     7 1   
    14     6     8 1   
    15     6    16 1   
    16     7    17 1   
    17     8     9 1   
    18     8    18 1   
    19     9    19 1   
    20    10    20 1   
@<TRIPOS>SUBSTRUCTURE
     1 LDY         1 TEMP              0 ****  ****    0 ROOT
