@<TRIPOS>MOLECULE
LDY
   20    20     1     0     0
SMALL
abcg2


@<TRIPOS>ATOM
      1 C5          35.1850    25.8580   -41.8470 c6         1 LDY       0.133600
      2 O5          34.3030    26.9390   -41.6380 os         1 LDY      -0.474000
      3 C1          34.4610    27.9570   -42.5960 c6         1 LDY       0.361300
      4 C2          34.1320    27.4170   -43.9860 c6         1 LDY       0.109300
      5 O2          34.3470    28.3840   -44.9850 oh         1 LDY      -0.733000
      6 C3          35.0240    26.2200   -44.3150 c6         1 LDY       0.182300
      7 O3          36.3750    26.5990   -44.4340 oh         1 LDY      -0.733000
      8 C4          34.9460    25.1860   -43.1940 c6         1 LDY       0.136300
      9 O4          33.6700    24.5960   -43.2810 oh         1 LDY      -0.712000
     10 O1          33.5700    28.9740   -42.3090 oh         1 LDY      -0.710000
     11 H51         35.0180    25.1470   -41.0340 h1         1 LDY       0.057200
     12 H52         36.2320    26.1810   -41.7830 h1         1 LDY       0.057200
     13 H1          35.5030    28.3200   -42.5770 h2         1 LDY       0.031700
     14 H2          33.0870    27.0760   -43.9750 h1         1 LDY       0.081700
     15 HO2         33.8330    29.1690   -44.7700 ho         1 LDY       0.526000
     16 H3          34.6650    25.7610   -45.2480 h1         1 LDY       0.067700
     17 HO3         36.4210    27.3670   -45.0140 ho         1 LDY       0.529000
     18 H4          35.7420    24.4430   -43.3470 h1         1 LDY       0.057700
     19 HO4         33.5760    23.9570   -42.5670 ho         1 LDY       0.511000
     20 HO1         33.9310    29.5360   -41.6150 ho         1 LDY       0.521000
@<TRIPOS>BOND
     1     1     2 1   
     2     1     8 1   
     3     1    11 1   
     4     1    12 1   
     5     2     3 1   
     6     3     4 1   
     7     3    10 1   
     8     3    13 1   
     9     4     5 1   
    10     4     6 1   
    11     4    14 1   
    12     5    15 1   
    13     6     7 1   
    14     6     8 1   
    15     6    16 1   
    16     7    17 1   
    17     8     9 1   
    18     8    18 1   
    19     9    19 1   
    20    10    20 1   
@<TRIPOS>SUBSTRUCTURE
     1 LDY         1 TEMP              0 ****  ****    0 ROOT
