@<TRIPOS>MOLECULE
LDZ
   75    75     1     0     0
SMALL
bcc


@<TRIPOS>ATOM
      1 C4          -7.4060     0.9650     1.5060 ca         1 LDZ      -0.102000
      2 C5          -8.4020     0.3040     2.2140 ca         1 LDZ      -0.133500
      3 C6          -8.7260    -1.0070     1.8960 ca         1 LDZ      -0.116000
      4 C1          -8.0530    -1.6550     0.8670 ca         1 LDZ      -0.133500
      5 C2          -7.0610    -0.9910     0.1600 ca         1 LDZ      -0.102000
      6 C3          -6.7290     0.3250     0.4730 ca         1 LDZ      -0.101300
      7 C7          -5.6470     1.0320    -0.2850 c3         1 LDZ       0.207700
      8 O8          -4.3960     0.5930     0.2580 os         1 LDZ      -0.430900
      9 C9          -3.2890     1.0540    -0.3340 c          1 LDZ       0.755100
     10 O31         -3.2930     1.8140    -1.2820 o          1 LDZ      -0.599000
     11 N10         -2.1860     0.5550     0.2520 ns         1 LDZ      -0.562900
     12 C11         -0.8590     0.9420    -0.1660 c3         1 LDZ       0.052700
     13 C12          0.0790    -0.2250     0.1190 c          1 LDZ       0.664100
     14 O32          0.0340    -0.8180     1.1870 o          1 LDZ      -0.613100
     15 C30         -0.3670     2.1910     0.5800 c3         1 LDZ      -0.095400
     16 C31          1.0070     2.7190     0.1630 c3         1 LDZ      -0.059700
     17 C32          1.0360     3.1610    -1.2970 c3         1 LDZ      -0.087600
     18 C33          1.4040     3.8730     1.0790 c3         1 LDZ      -0.087600
     19 N13          0.9520    -0.4950    -0.8610 ns         1 LDZ      -0.553900
     20 C14          2.0820    -1.3860    -0.7380 c3         1 LDZ       0.034700
     21 C15          3.3510    -0.5590    -0.9240 c          1 LDZ       0.652100
     22 O34          3.4270     0.2760    -1.8110 o          1 LDZ      -0.608100
     23 C24          2.0530    -2.4930    -1.7950 c3         1 LDZ      -0.084400
     24 C25          0.8290    -3.4060    -1.7310 c3         1 LDZ      -0.057700
     25 C26          0.8500    -4.3720    -2.9130 c3         1 LDZ      -0.091600
     26 C27          0.7450    -4.1740    -0.4160 c3         1 LDZ      -0.091600
     27 N16          4.3430    -0.8220    -0.0620 ns         1 LDZ      -0.547900
     28 C17          5.6500    -0.2410    -0.1940 c3         1 LDZ      -0.017300
     29 C22          6.5090    -1.0100    -1.1690 c          1 LDZ       0.556900
     30 C18          6.3630    -0.1130     1.1530 c3         1 LDZ      -0.077400
     31 C19          5.5910     0.6920     2.2020 c3         1 LDZ      -0.057700
     32 C20          6.4370     0.8140     3.4660 c3         1 LDZ      -0.091600
     33 C21          5.1780     2.0700     1.6940 c3         1 LDZ      -0.091600
     34 O33          6.1450    -1.9770    -1.7840 o          1 LDZ      -0.501100
     35 H3          -7.1570     1.9900     1.7560 ha         1 LDZ       0.133000
     36 H4          -8.9240     0.8160     3.0120 ha         1 LDZ       0.132000
     37 H5          -9.5030    -1.5240     2.4440 ha         1 LDZ       0.131000
     38 H1          -8.3050    -2.6760     0.6130 ha         1 LDZ       0.132000
     39 H2          -6.5450    -1.4990    -0.6470 ha         1 LDZ       0.133000
     40 H6          -5.7000     0.7900    -1.3480 h1         1 LDZ       0.055700
     41 H7          -5.7450     2.1150    -0.1780 h1         1 LDZ       0.055700
     42 H8          -2.2750     0.0040     1.0920 hn         1 LDZ       0.347500
     43 H9          -0.8940     1.1440    -1.2370 h1         1 LDZ       0.087700
     44 H34         -1.1110     2.9800     0.4280 hc         1 LDZ       0.058700
     45 H35         -0.3640     1.9680     1.6510 hc         1 LDZ       0.058700
     46 H36          1.7530     1.9270     0.2940 hc         1 LDZ       0.047700
     47 H37          0.2920     3.9390    -1.4830 hc         1 LDZ       0.035033
     48 H38          2.0150     3.5630    -1.5590 hc         1 LDZ       0.035033
     49 H39          0.8340     2.3440    -1.9940 hc         1 LDZ       0.035033
     50 H40          1.4410     3.5550     2.1220 hc         1 LDZ       0.035033
     51 H41          2.3880     4.2650     0.8160 hc         1 LDZ       0.035033
     52 H42          0.6880     4.6950     1.0080 hc         1 LDZ       0.035033
     53 H10          0.9170     0.0620    -1.7010 hn         1 LDZ       0.333500
     54 H11          2.0580    -1.8210     0.2610 h1         1 LDZ       0.089700
     55 H25          2.1060    -2.0300    -2.7860 hc         1 LDZ       0.058200
     56 H26          2.9630    -3.0940    -1.6870 hc         1 LDZ       0.058200
     57 H27         -0.0660    -2.7810    -1.8230 hc         1 LDZ       0.052700
     58 H28          1.7240    -5.0250    -2.8650 hc         1 LDZ       0.035367
     59 H29         -0.0380    -5.0050    -2.9180 hc         1 LDZ       0.035367
     60 H30          0.8850    -3.8380    -3.8650 hc         1 LDZ       0.035367
     61 H31          1.6310    -4.7990    -0.2740 hc         1 LDZ       0.035367
     62 H32          0.6590    -3.5120     0.4460 hc         1 LDZ       0.035367
     63 H33         -0.1260    -4.8320    -0.4070 hc         1 LDZ       0.035367
     64 H12          4.2260    -1.5740     0.6000 hn         1 LDZ       0.323500
     65 H13          5.5450     0.7620    -0.6220 h1         1 LDZ       0.101700
     66 H23          7.5280    -0.6000    -1.2870 h4         1 LDZ      -0.008800
     67 H14          6.5830    -1.1090     1.5500 hc         1 LDZ       0.048200
     68 H15          7.3310     0.3650     0.9710 hc         1 LDZ       0.048200
     69 H16          4.6810     0.1400     2.4590 hc         1 LDZ       0.051700
     70 H17          5.8920     1.3360     4.2540 hc         1 LDZ       0.036367
     71 H18          6.7240    -0.1660     3.8520 hc         1 LDZ       0.036367
     72 H19          7.3540     1.3750     3.2690 hc         1 LDZ       0.036367
     73 H20          4.4630     2.0110     0.8710 hc         1 LDZ       0.036367
     74 H21          4.7000     2.6420     2.4900 hc         1 LDZ       0.036367
     75 H22          6.0430     2.6410     1.3470 hc         1 LDZ       0.036367
@<TRIPOS>BOND
     1     1     2 ar  
     2     1     6 ar  
     3     1    35 1   
     4     2     3 ar  
     5     2    36 1   
     6     3     4 ar  
     7     3    37 1   
     8     4     5 ar  
     9     4    38 1   
    10     5     6 ar  
    11     5    39 1   
    12     6     7 1   
    13     7     8 1   
    14     7    40 1   
    15     7    41 1   
    16     8     9 1   
    17     9    10 2   
    18     9    11 1   
    19    11    12 1   
    20    11    42 1   
    21    12    13 1   
    22    12    15 1   
    23    12    43 1   
    24    13    14 2   
    25    13    19 1   
    26    15    16 1   
    27    15    44 1   
    28    15    45 1   
    29    16    17 1   
    30    16    18 1   
    31    16    46 1   
    32    17    47 1   
    33    17    48 1   
    34    17    49 1   
    35    18    50 1   
    36    18    51 1   
    37    18    52 1   
    38    19    20 1   
    39    19    53 1   
    40    20    21 1   
    41    20    23 1   
    42    20    54 1   
    43    21    22 2   
    44    21    27 1   
    45    23    24 1   
    46    23    55 1   
    47    23    56 1   
    48    24    25 1   
    49    24    26 1   
    50    24    57 1   
    51    25    58 1   
    52    25    59 1   
    53    25    60 1   
    54    26    61 1   
    55    26    62 1   
    56    26    63 1   
    57    27    28 1   
    58    27    64 1   
    59    28    29 1   
    60    28    30 1   
    61    28    65 1   
    62    29    34 2   
    63    29    66 1   
    64    30    31 1   
    65    30    67 1   
    66    30    68 1   
    67    31    32 1   
    68    31    33 1   
    69    31    69 1   
    70    32    70 1   
    71    32    71 1   
    72    32    72 1   
    73    33    73 1   
    74    33    74 1   
    75    33    75 1   
@<TRIPOS>SUBSTRUCTURE
     1 LDZ         1 TEMP              0 ****  ****    0 ROOT
