@<TRIPOS>MOLECULE
LDZ
   75    75     1     0     0
SMALL
No Charge or Current Charge


@<TRIPOS>ATOM
      1 C4          -7.2350     0.6800     1.9580 ca         1 LDZ      -0.084000
      2 C5          -8.2460    -0.0930     2.5560 ca         1 LDZ      -0.115500
      3 C6          -8.8310    -1.1560     1.8470 ca         1 LDZ      -0.098000
      4 C1          -8.4030    -1.4470     0.5410 ca         1 LDZ      -0.115500
      5 C2          -7.3910    -0.6740    -0.0570 ca         1 LDZ      -0.084000
      6 C3          -6.8030     0.3950     0.6480 ca         1 LDZ      -0.101300
      7 C7          -5.7080     1.2320    -0.0000 c3         1 LDZ       0.230900
      8 O8          -4.4390     0.6320     0.3040 os         1 LDZ      -0.454100
      9 C9          -3.3260     1.2370    -0.1870 c          1 LDZ       0.639100
     10 O31         -3.3020     2.2440    -0.8780 o          1 LDZ      -0.550000
     11 N10         -2.2300     0.5210     0.1960 ns         1 LDZ      -0.495900
     12 C11         -0.8300     0.8620    -0.1330 c3         1 LDZ       0.052700
     13 C12          0.0550    -0.4120    -0.0050 c          1 LDZ       0.597100
     14 O32         -0.1870    -1.3130     0.7880 o          1 LDZ      -0.613100
     15 C30         -0.3410     2.0110     0.7990 c3         1 LDZ      -0.095400
     16 C31          1.1140     2.5170     0.5780 c3         1 LDZ      -0.059700
     17 C32          1.3300     3.1240    -0.8290 c3         1 LDZ      -0.087600
     18 C33          1.5170     3.5300     1.6730 c3         1 LDZ      -0.087600
     19 N13          1.1450    -0.4540    -0.8490 ns         1 LDZ      -0.486900
     20 C14          2.2350    -1.4520    -0.7970 c3         1 LDZ       0.034700
     21 C15          3.5880    -0.7000    -0.9150 c          1 LDZ       0.585100
     22 O34          3.7090     0.3480    -1.5370 o          1 LDZ      -0.608100
     23 C24          2.0890    -2.5090    -1.9260 c3         1 LDZ      -0.084400
     24 C25          0.8580    -3.4520    -1.8200 c3         1 LDZ      -0.057700
     25 C26          0.6880    -4.2840    -3.1110 c3         1 LDZ      -0.091600
     26 C27          0.9250    -4.3790    -0.5820 c3         1 LDZ      -0.091600
     27 N16          4.6470    -1.2820    -0.2480 ns         1 LDZ      -0.480900
     28 C17          5.9930    -0.6770    -0.0880 c3         1 LDZ      -0.017300
     29 C22          7.0980    -1.7560    -0.2270 c          1 LDZ       0.556900
     30 C18          6.1250     0.0840     1.2620 c3         1 LDZ      -0.077400
     31 C19          5.2060     1.3280     1.4420 c3         1 LDZ      -0.057700
     32 C20          5.2350     1.8320     2.9020 c3         1 LDZ      -0.091600
     33 C21          5.5600     2.4770     0.4670 c3         1 LDZ      -0.091600
     34 O33          6.8800    -2.9640    -0.2780 o          1 LDZ      -0.501100
     35 H3          -6.7860     1.5000     2.5150 ha         1 LDZ       0.115000
     36 H4          -8.5760     0.1320     3.5680 ha         1 LDZ       0.114000
     37 H5          -9.6130    -1.7540     2.3100 ha         1 LDZ       0.113000
     38 H1          -8.8530    -2.2700    -0.0080 ha         1 LDZ       0.114000
     39 H2          -7.0640    -0.9080    -1.0680 ha         1 LDZ       0.115000
     40 H6          -5.8700     1.2720    -1.0860 h1         1 LDZ       0.055700
     41 H7          -5.7560     2.2600     0.3850 h1         1 LDZ       0.055700
     42 H8          -2.4130    -0.3040     0.7560 hn         1 LDZ       0.347500
     43 H9          -0.7940     1.1910    -1.1790 h1         1 LDZ       0.087700
     44 H34         -1.0230     2.8640     0.6970 hc         1 LDZ       0.058700
     45 H35         -0.4370     1.6680     1.8370 hc         1 LDZ       0.058700
     46 H36          1.7970     1.6660     0.6830 hc         1 LDZ       0.047700
     47 H37          0.6670     3.9830    -0.9880 hc         1 LDZ       0.035033
     48 H38          2.3660     3.4660    -0.9450 hc         1 LDZ       0.035033
     49 H39          1.1350     2.3910    -1.6190 hc         1 LDZ       0.035033
     50 H40          1.4310     3.0800     2.6700 hc         1 LDZ       0.035033
     51 H41          2.5560     3.8540     1.5400 hc         1 LDZ       0.035033
     52 H42          0.8750     4.4190     1.6410 hc         1 LDZ       0.035033
     53 H10          1.2760     0.3430    -1.4630 hn         1 LDZ       0.333500
     54 H11          2.2300    -1.9460     0.1830 h1         1 LDZ       0.089700
     55 H25          2.0540    -1.9790    -2.8870 hc         1 LDZ       0.058200
     56 H26          2.9970    -3.1250    -1.9530 hc         1 LDZ       0.058200
     57 H27         -0.0410    -2.8300    -1.7220 hc         1 LDZ       0.052700
     58 H28          1.5560    -4.9330    -3.2760 hc         1 LDZ       0.035367
     59 H29         -0.2070    -4.9150    -3.0510 hc         1 LDZ       0.035367
     60 H30          0.5780    -3.6290    -3.9840 hc         1 LDZ       0.035367
     61 H31          1.8190    -5.0130    -0.6170 hc         1 LDZ       0.035367
     62 H32          0.9490    -3.8040     0.3500 hc         1 LDZ       0.035367
     63 H33          0.0450    -5.0330    -0.5430 hc         1 LDZ       0.035367
     64 H12          4.4650    -2.1690     0.2100 hn         1 LDZ       0.323500
     65 H13          6.1740     0.0250    -0.9120 h1         1 LDZ       0.101700
     66 H23          8.1370    -1.3630    -0.2820 h4         1 LDZ      -0.008800
     67 H14          5.9240    -0.6270     2.0740 hc         1 LDZ       0.048200
     68 H15          7.1680     0.4030     1.3900 hc         1 LDZ       0.048200
     69 H16          4.1730     1.0240     1.2380 hc         1 LDZ       0.051700
     70 H17          4.5520     2.6800     3.0340 hc         1 LDZ       0.036367
     71 H18          4.9220     1.0400     3.5930 hc         1 LDZ       0.036367
     72 H19          6.2440     2.1560     3.1850 hc         1 LDZ       0.036367
     73 H20          5.4680     2.1610    -0.5770 hc         1 LDZ       0.036367
     74 H21          4.8860     3.3290     0.6150 hc         1 LDZ       0.036367
     75 H22          6.5880     2.8230     0.6290 hc         1 LDZ       0.036367
@<TRIPOS>BOND
     1     1     2 ar  
     2     1     6 ar  
     3     1    35 1   
     4     2     3 ar  
     5     2    36 1   
     6     3     4 ar  
     7     3    37 1   
     8     4     5 ar  
     9     4    38 1   
    10     5     6 ar  
    11     5    39 1   
    12     6     7 1   
    13     7     8 1   
    14     7    40 1   
    15     7    41 1   
    16     8     9 1   
    17     9    10 2   
    18     9    11 1   
    19    11    12 1   
    20    11    42 1   
    21    12    13 1   
    22    12    15 1   
    23    12    43 1   
    24    13    14 2   
    25    13    19 1   
    26    15    16 1   
    27    15    44 1   
    28    15    45 1   
    29    16    17 1   
    30    16    18 1   
    31    16    46 1   
    32    17    47 1   
    33    17    48 1   
    34    17    49 1   
    35    18    50 1   
    36    18    51 1   
    37    18    52 1   
    38    19    20 1   
    39    19    53 1   
    40    20    21 1   
    41    20    23 1   
    42    20    54 1   
    43    21    22 2   
    44    21    27 1   
    45    23    24 1   
    46    23    55 1   
    47    23    56 1   
    48    24    25 1   
    49    24    26 1   
    50    24    57 1   
    51    25    58 1   
    52    25    59 1   
    53    25    60 1   
    54    26    61 1   
    55    26    62 1   
    56    26    63 1   
    57    27    28 1   
    58    27    64 1   
    59    28    29 1   
    60    28    30 1   
    61    28    65 1   
    62    29    34 2   
    63    29    66 1   
    64    30    31 1   
    65    30    67 1   
    66    30    68 1   
    67    31    32 1   
    68    31    33 1   
    69    31    69 1   
    70    32    70 1   
    71    32    71 1   
    72    32    72 1   
    73    33    73 1   
    74    33    74 1   
    75    33    75 1   
@<TRIPOS>SUBSTRUCTURE
     1 LDZ         1 TEMP              0 ****  ****    0 ROOT
