@<TRIPOS>MOLECULE
LE0
   25    25     1     0     0
SMALL
abcg2


@<TRIPOS>ATOM
      1 C10         22.1740   -43.9980    10.2250 ca         1 LE0      -0.139000
      2 C02         26.4910   -41.1980    13.2880 c          1 LE0       0.741000
      3 C04         25.4610   -42.2630    12.8370 c3         1 LE0      -0.308700
      4 C05         24.0760   -41.6760    12.5550 c3         1 LE0      -0.005100
      5 C06         23.1100   -42.7090    12.0500 ca         1 LE0      -0.008300
      6 C07         22.2780   -43.4000    12.9230 ca         1 LE0      -0.040000
      7 C08         21.3980   -44.3730    12.4560 ca         1 LE0      -0.205300
      8 C09         21.3410   -44.6780    11.1030 ca         1 LE0      -0.113000
      9 C11         23.0440   -43.0260    10.6930 ca         1 LE0      -0.097000
     10 C12         20.4930   -45.0400    13.4430 c3         1 LE0       0.350300
     11 C16         25.3890   -43.3600    13.9220 c          1 LE0       0.741000
     12 F13         21.1590   -45.4770    14.5220 f          1 LE0      -0.129000
     13 F14         19.8490   -46.0930    12.9290 f          1 LE0      -0.129000
     14 F15         19.5540   -44.1950    13.9000 f          1 LE0      -0.129000
     15 O01         27.6450   -41.6260    13.5040 o          1 LE0      -0.766250
     16 O03         26.1090   -40.0170    13.4040 o          1 LE0      -0.766250
     17 O17         25.7820   -44.5050    13.6270 o          1 LE0      -0.766250
     18 O18         24.9310   -42.9960    15.0290 o          1 LE0      -0.766250
     19 H1          22.1370   -44.2270     9.1680 ha         1 LE0       0.082000
     20 H2          25.8360   -42.7150    11.9120 hc         1 LE0       0.017700
     21 H3          24.1620   -40.8800    11.8130 hc         1 LE0       0.041700
     22 H4          23.6840   -41.2170    13.4640 hc         1 LE0       0.041700
     23 H5          22.3330   -43.1700    13.9800 ha         1 LE0       0.157000
     24 H6          20.6640   -45.4290    10.7210 ha         1 LE0       0.091000
     25 H7          23.6830   -42.4980     9.9950 ha         1 LE0       0.107000
@<TRIPOS>BOND
     1     1     8 ar  
     2     1     9 ar  
     3     1    19 1   
     4     2     3 1   
     5     2    15 1   
     6     2    16 1   
     7     3     4 1   
     8     3    11 1   
     9     3    20 1   
    10     4     5 1   
    11     4    21 1   
    12     4    22 1   
    13     5     6 ar  
    14     5     9 ar  
    15     6     7 ar  
    16     6    23 1   
    17     7     8 ar  
    18     7    10 1   
    19     8    24 1   
    20     9    25 1   
    21    10    12 1   
    22    10    13 1   
    23    10    14 1   
    24    11    17 1   
    25    11    18 1   
@<TRIPOS>SUBSTRUCTURE
     1 LE0         1 TEMP              0 ****  ****    0 ROOT
