@<TRIPOS>MOLECULE
LE0
   25    25     1     0     0
SMALL
No Charge or Current Charge


@<TRIPOS>ATOM
      1 C10         22.2310   -44.0490    10.2160 ca         1 LE0      -0.139000
      2 C02         26.5300   -41.1940    13.2170 c          1 LE0       0.741000
      3 C04         25.5110   -42.2720    12.8780 c3         1 LE0      -0.308700
      4 C05         24.0940   -41.6990    12.6060 c3         1 LE0      -0.005100
      5 C06         23.1240   -42.7500    12.0740 ca         1 LE0      -0.008300
      6 C07         22.2100   -43.3810    12.9410 ca         1 LE0      -0.040000
      7 C08         21.3040   -44.3520    12.4570 ca         1 LE0      -0.205300
      8 C09         21.3200   -44.6740    11.0830 ca         1 LE0      -0.113000
      9 C11         23.1310   -43.0920    10.7090 ca         1 LE0      -0.097000
     10 C12         20.3070   -45.0220    13.4100 c3         1 LE0       0.350300
     11 C16         25.5480   -43.2980    14.0020 c          1 LE0       0.741000
     12 F13         20.8120   -45.1760    14.6560 f          1 LE0      -0.129000
     13 F14         19.9360   -46.2540    12.9910 f          1 LE0      -0.129000
     14 F15         19.1770   -44.2900    13.5310 f          1 LE0      -0.129000
     15 O01         27.5330   -41.1240    12.5220 o          1 LE0      -0.766250
     16 O03         26.2840   -40.3870    14.1010 o          1 LE0      -0.766250
     17 O17         26.0210   -44.3960    13.7520 o          1 LE0      -0.766250
     18 O18         25.0600   -43.0220    15.0880 o          1 LE0      -0.766250
     19 H1          22.2370   -44.3050     9.1600 ha         1 LE0       0.082000
     20 H2          25.8720   -42.7750    11.9700 hc         1 LE0       0.017700
     21 H3          24.1790   -40.8860    11.8740 hc         1 LE0       0.041700
     22 H4          23.6950   -41.2380    13.5180 hc         1 LE0       0.041700
     23 H5          22.2080   -43.1110    13.9960 ha         1 LE0       0.157000
     24 H6          20.6250   -45.4080    10.6800 ha         1 LE0       0.091000
     25 H7          23.8330   -42.6120    10.0310 ha         1 LE0       0.107000
@<TRIPOS>BOND
     1     1     8 ar  
     2     1     9 ar  
     3     1    19 1   
     4     2     3 1   
     5     2    15 1   
     6     2    16 1   
     7     3     4 1   
     8     3    11 1   
     9     3    20 1   
    10     4     5 1   
    11     4    21 1   
    12     4    22 1   
    13     5     6 ar  
    14     5     9 ar  
    15     6     7 ar  
    16     6    23 1   
    17     7     8 ar  
    18     7    10 1   
    19     8    24 1   
    20     9    25 1   
    21    10    12 1   
    22    10    13 1   
    23    10    14 1   
    24    11    17 1   
    25    11    18 1   
@<TRIPOS>SUBSTRUCTURE
     1 LE0         1 TEMP              0 ****  ****    0 ROOT
