@<TRIPOS>MOLECULE
LE1
   19    18     1     0     0
SMALL
abcg2


@<TRIPOS>ATOM
      1 O           13.0620    -5.9230     8.9830 o          1 LE1      -0.724500
      2 C           11.8450    -6.1470     9.1240 c          1 LE1       0.728000
      3 CA          10.8750    -4.9710     8.8060 c3         1 LE1       0.032500
      4 N            9.6950    -5.5110     8.1550 n8         1 LE1      -0.992200
      5 CB          10.5910    -4.1140    10.0740 c3         1 LE1       0.147000
      6 C9          11.8710    -3.5830    10.7090 c3         1 LE1      -0.078600
      7 C8           9.7580    -4.8480    11.1130 c3         1 LE1      -0.078600
      8 SG           9.6190    -2.6670     9.4350 sh         1 LE1      -0.565800
      9 OXT         11.3170    -7.2150     9.4920 o          1 LE1      -0.724500
     10 HA          11.3890    -4.3090     8.0990 h1         1 LE1       0.062700
     11 HN           9.3680    -6.3000     8.6980 hn         1 LE1       0.389500
     12 HNA          8.9450    -4.8300     8.1360 hn         1 LE1       0.389500
     13 H9          12.5080    -3.0890     9.9750 hc         1 LE1       0.037200
     14 H9A         11.6390    -2.8620    11.4940 hc         1 LE1       0.037200
     15 H9B         12.4450    -4.3920    11.1630 hc         1 LE1       0.037200
     16 H8           8.8090    -5.1970    10.7060 hc         1 LE1       0.037200
     17 H8A         10.3040    -5.7100    11.4950 hc         1 LE1       0.037200
     18 H8B          9.5370    -4.1910    11.9560 hc         1 LE1       0.037200
     19 HSG          9.2960    -2.1350    10.6200 hs         1 LE1       0.191800
@<TRIPOS>BOND
     1     1     2 1   
     2     2     3 1   
     3     2     9 1   
     4     3     4 1   
     5     3     5 1   
     6     3    10 1   
     7     4    11 1   
     8     4    12 1   
     9     5     6 1   
    10     5     7 1   
    11     5     8 1   
    12     6    13 1   
    13     6    14 1   
    14     6    15 1   
    15     7    16 1   
    16     7    17 1   
    17     7    18 1   
    18     8    19 1   
@<TRIPOS>SUBSTRUCTURE
     1 LE1         1 TEMP              0 ****  ****    0 ROOT
