@<TRIPOS>MOLECULE
LE1
   19    18     1     0     0
SMALL
No Charge or Current Charge


@<TRIPOS>ATOM
      1 O           13.0850    -6.0830     8.9210 o          1 LE1      -0.724500
      2 C           11.9010    -6.2140     9.2080 c          1 LE1       0.728000
      3 CA          10.9060    -5.0420     8.8210 c3         1 LE1       0.032500
      4 N            9.6610    -5.4400     8.0470 n8         1 LE1      -0.992200
      5 CB          10.5520    -4.1220    10.0490 c3         1 LE1       0.147000
      6 C9          11.8400    -3.5320    10.6780 c3         1 LE1      -0.078600
      7 C8           9.7700    -4.8970    11.1430 c3         1 LE1      -0.078600
      8 SG           9.4880    -2.7070     9.4720 sh         1 LE1      -0.565800
      9 OXT         11.4360    -7.2650     9.6320 o          1 LE1      -0.724500
     10 HA          11.4790    -4.4040     8.1350 h1         1 LE1       0.062700
     11 HN           9.1540    -6.1470     8.5930 hn         1 LE1       0.389500
     12 HNA          9.0320    -4.6270     8.0590 hn         1 LE1       0.389500
     13 H9          12.4280    -2.9930     9.9260 hc         1 LE1       0.037200
     14 H9A         11.5910    -2.8260    11.4800 hc         1 LE1       0.037200
     15 H9B         12.4720    -4.3160    11.1100 hc         1 LE1       0.037200
     16 H8           8.8490    -5.3340    10.7400 hc         1 LE1       0.037200
     17 H8A         10.3740    -5.7040    11.5730 hc         1 LE1       0.037200
     18 H8B          9.4870    -4.2250    11.9620 hc         1 LE1       0.037200
     19 HSG          9.3680    -2.1160    10.6860 hs         1 LE1       0.191800
@<TRIPOS>BOND
     1     1     2 1   
     2     2     3 1   
     3     2     9 1   
     4     3     4 1   
     5     3     5 1   
     6     3    10 1   
     7     4    11 1   
     8     4    12 1   
     9     5     6 1   
    10     5     7 1   
    11     5     8 1   
    12     6    13 1   
    13     6    14 1   
    14     6    15 1   
    15     7    16 1   
    16     7    17 1   
    17     7    18 1   
    18     8    19 1   
@<TRIPOS>SUBSTRUCTURE
     1 LE1         1 TEMP              0 ****  ****    0 ROOT
