@<TRIPOS>MOLECULE
LE2
   22    22     1     0     0
SMALL
No Charge or Current Charge


@<TRIPOS>ATOM
      1 C            3.5960    -0.4560    -0.0320 cs         1 LE2       0.360200
      2 N            2.3570    -1.0440    -0.0280 ns         1 LE2      -0.394900
      3 S            3.8380     1.2040    -0.0260 s          1 LE2      -0.567400
      4 C1           1.0730    -0.3390    -0.0180 c3         1 LE2       0.080000
      5 C2          -0.1210    -1.3120    -0.0160 c3         1 LE2      -0.046100
      6 C3          -1.4530    -0.5750    -0.0060 ca         1 LE2      -0.088300
      7 C4          -2.0770    -0.2190    -1.2180 ca         1 LE2      -0.102000
      8 C5          -3.3040     0.4680    -1.2080 ca         1 LE2      -0.107000
      9 C6          -3.9140     0.8030     0.0130 ca         1 LE2      -0.103000
     10 C7          -3.2950     0.4520     1.2240 ca         1 LE2      -0.107000
     11 C8          -2.0680    -0.2340     1.2150 ca         1 LE2      -0.102000
     12 H1           1.0250     0.2990     0.8740 h1         1 LE2       0.076700
     13 H1A          1.0150     0.3070    -0.9040 h1         1 LE2       0.076700
     14 H2          -0.0570    -1.9630    -0.8970 hc         1 LE2       0.050700
     15 H2A         -0.0480    -1.9700     0.8590 hc         1 LE2       0.050700
     16 H4          -1.6120    -0.4720    -2.1680 ha         1 LE2       0.111500
     17 H5          -3.7820     0.7400    -2.1470 ha         1 LE2       0.115000
     18 H6          -4.8630     1.3350     0.0200 ha         1 LE2       0.115000
     19 H7          -3.7650     0.7120     2.1700 ha         1 LE2       0.115000
     20 H8          -1.5950    -0.5000     2.1580 ha         1 LE2       0.111500
     21 H10          4.4090    -1.1840    -0.0400 h5         1 LE2       0.041200
     22 H11          2.3380    -2.0590    -0.0320 hn         1 LE2       0.310500
@<TRIPOS>BOND
     1     1     2 1   
     2     1     3 2   
     3     1    21 1   
     4     2     4 1   
     5     2    22 1   
     6     4     5 1   
     7     4    12 1   
     8     4    13 1   
     9     5     6 1   
    10     5    14 1   
    11     5    15 1   
    12     6     7 ar  
    13     6    11 ar  
    14     7     8 ar  
    15     7    16 1   
    16     8     9 ar  
    17     8    17 1   
    18     9    10 ar  
    19     9    18 1   
    20    10    11 ar  
    21    10    19 1   
    22    11    20 1   
@<TRIPOS>SUBSTRUCTURE
     1 LE2         1 TEMP              0 ****  ****    0 ROOT
