@<TRIPOS>MOLECULE
LE2
   22    22     1     0     0
SMALL
bcc


@<TRIPOS>ATOM
      1 C            3.4830    -0.4380    -0.0310 cs         1 LE2       0.427200
      2 N            2.3090    -1.0290    -0.0290 ns         1 LE2      -0.461900
      3 S            3.7520     1.1950    -0.0270 s          1 LE2      -0.567400
      4 C1           1.0380    -0.3330    -0.0190 c3         1 LE2       0.080000
      5 C2          -0.1170    -1.3270    -0.0160 c3         1 LE2      -0.046100
      6 C3          -1.4360    -0.6040    -0.0060 ca         1 LE2      -0.088300
      7 C4          -2.0530    -0.2350    -1.1990 ca         1 LE2      -0.120000
      8 C5          -3.2510     0.4670    -1.1920 ca         1 LE2      -0.125000
      9 C6          -3.8490     0.8130     0.0130 ca         1 LE2      -0.121000
     10 C7          -3.2420     0.4510     1.2080 ca         1 LE2      -0.125000
     11 C8          -2.0440    -0.2510     1.1960 ca         1 LE2      -0.120000
     12 H1           0.9890     0.3150     0.8600 h1         1 LE2       0.076700
     13 H1A          0.9790     0.3200    -0.8940 h1         1 LE2       0.076700
     14 H2          -0.0490    -1.9680    -0.8990 hc         1 LE2       0.050700
     15 H2A         -0.0390    -1.9760     0.8600 hc         1 LE2       0.050700
     16 H4          -1.5950    -0.5020    -2.1440 ha         1 LE2       0.129500
     17 H5          -3.7190     0.7390    -2.1290 ha         1 LE2       0.133000
     18 H6          -4.7840     1.3580     0.0200 ha         1 LE2       0.133000
     19 H7          -3.7020     0.7120     2.1520 ha         1 LE2       0.133000
     20 H8          -1.5790    -0.5320     2.1340 ha         1 LE2       0.129500
     21 H10          4.3110    -1.1430    -0.0350 h5         1 LE2       0.041200
     22 H11          2.2950    -2.0380    -0.0310 hn         1 LE2       0.310500
@<TRIPOS>BOND
     1     1     2 1   
     2     1     3 2   
     3     1    21 1   
     4     2     4 1   
     5     2    22 1   
     6     4     5 1   
     7     4    12 1   
     8     4    13 1   
     9     5     6 1   
    10     5    14 1   
    11     5    15 1   
    12     6     7 ar  
    13     6    11 ar  
    14     7     8 ar  
    15     7    16 1   
    16     8     9 ar  
    17     8    17 1   
    18     9    10 ar  
    19     9    18 1   
    20    10    11 ar  
    21    10    19 1   
    22    11    20 1   
@<TRIPOS>SUBSTRUCTURE
     1 LE2         1 TEMP              0 ****  ****    0 ROOT
