@<TRIPOS>MOLECULE
LE3
   23    22     1     0     0
SMALL
No Charge or Current Charge


@<TRIPOS>ATOM
      1 C            4.3030     0.6570    -0.1850 cs         1 LE3       0.360200
      2 N            2.9800     1.0120    -0.2200 ns         1 LE3      -0.393900
      3 S            4.8430    -0.8920     0.1680 s          1 LE3      -0.567400
      4 C1           1.8450     0.1230     0.0380 c3         1 LE3       0.078000
      5 C2           0.5000     0.8650    -0.0800 c3         1 LE3      -0.091400
      6 C3          -0.7160    -0.0490     0.1880 c3         1 LE3      -0.050400
      7 C4          -2.0610     0.6970     0.0680 c3         1 LE3      -0.040100
      8 S5          -3.4860    -0.4300     0.4190 s4         1 LE3       0.175400
      9 O5A         -3.5360    -1.4490    -0.6970 o          1 LE3      -0.501000
     10 C5B         -4.8160     0.8020     0.0820 c3         1 LE3      -0.066800
     11 H1           1.8740    -0.7050    -0.6830 h1         1 LE3       0.074200
     12 H1A          1.9470    -0.2970     1.0480 h1         1 LE3       0.074200
     13 H2           0.4860     1.7010     0.6310 hc         1 LE3       0.045700
     14 H2A          0.4120     1.2950    -1.0860 hc         1 LE3       0.045700
     15 H3          -0.7030    -0.8850    -0.5220 hc         1 LE3       0.057700
     16 H3A         -0.6320    -0.4790     1.1940 hc         1 LE3       0.057700
     17 H4          -2.1000     1.5220     0.7910 h1         1 LE3       0.075200
     18 H4A         -2.1850     1.1020    -0.9440 h1         1 LE3       0.075200
     19 H5B         -4.6510     1.2500    -0.9050 h1         1 LE3       0.079367
     20 H5BA        -5.7850     0.2880     0.1020 h1         1 LE3       0.079367
     21 H5BB        -4.7880     1.5770     0.8580 h1         1 LE3       0.079367
     22 H12          4.9700     1.4910    -0.4120 h5         1 LE3       0.042200
     23 H13          2.7770     1.9810    -0.4470 hn         1 LE3       0.311500
@<TRIPOS>BOND
     1     1     2 1   
     2     1     3 2   
     3     1    22 1   
     4     2     4 1   
     5     2    23 1   
     6     4     5 1   
     7     4    11 1   
     8     4    12 1   
     9     5     6 1   
    10     5    13 1   
    11     5    14 1   
    12     6     7 1   
    13     6    15 1   
    14     6    16 1   
    15     7     8 1   
    16     7    17 1   
    17     7    18 1   
    18     8     9 2   
    19     8    10 1   
    20    10    19 1   
    21    10    20 1   
    22    10    21 1   
@<TRIPOS>SUBSTRUCTURE
     1 LE3         1 TEMP              0 ****  ****    0 ROOT
