@<TRIPOS>MOLECULE
LE3
   23    22     1     0     0
SMALL
abcg2


@<TRIPOS>ATOM
      1 C            4.1790     0.6240    -0.1990 cs         1 LE3       0.360200
      2 N            2.9210     1.0020    -0.2150 ns         1 LE3      -0.393900
      3 S            4.7320    -0.9050     0.1100 s          1 LE3      -0.567400
      4 C1           1.7960     0.1250     0.0370 c3         1 LE3       0.078000
      5 C2           0.4860     0.8880    -0.0610 c3         1 LE3      -0.091400
      6 C3          -0.7050    -0.0270     0.1950 c3         1 LE3      -0.050400
      7 C4          -2.0170     0.7320     0.0930 c3         1 LE3      -0.040100
      8 S5          -3.4080    -0.3830     0.4330 s4         1 LE3       0.175400
      9 O5A         -3.4030    -1.4270    -0.6610 o          1 LE3      -0.501000
     10 C5B         -4.7360     0.7710     0.0450 c3         1 LE3      -0.066800
     11 H1           1.8180    -0.6980    -0.6830 h1         1 LE3       0.074200
     12 H1A          1.9080    -0.3240     1.0280 h1         1 LE3       0.074200
     13 H2           0.4830     1.7090     0.6620 hc         1 LE3       0.045700
     14 H2A          0.3970     1.3380    -1.0540 hc         1 LE3       0.045700
     15 H3          -0.7020    -0.8470    -0.5260 hc         1 LE3       0.057700
     16 H3A         -0.6150    -0.4760     1.1890 hc         1 LE3       0.057700
     17 H4          -2.0710     1.5370     0.8300 h1         1 LE3       0.075200
     18 H4A         -2.1590     1.1580    -0.9040 h1         1 LE3       0.075200
     19 H5B         -4.6160     1.1490    -0.9700 h1         1 LE3       0.079367
     20 H5BA        -5.6770     0.2310     0.1320 h1         1 LE3       0.079367
     21 H5BB        -4.7270     1.5920     0.7610 h1         1 LE3       0.079367
     22 H12          4.8690     1.4370    -0.4150 h5         1 LE3       0.042200
     23 H13          2.7260     1.9710    -0.4210 hn         1 LE3       0.311500
@<TRIPOS>BOND
     1     1     2 1   
     2     1     3 2   
     3     1    22 1   
     4     2     4 1   
     5     2    23 1   
     6     4     5 1   
     7     4    11 1   
     8     4    12 1   
     9     5     6 1   
    10     5    13 1   
    11     5    14 1   
    12     6     7 1   
    13     6    15 1   
    14     6    16 1   
    15     7     8 1   
    16     7    17 1   
    17     7    18 1   
    18     8     9 2   
    19     8    10 1   
    20    10    19 1   
    21    10    20 1   
    22    10    21 1   
@<TRIPOS>SUBSTRUCTURE
     1 LE3         1 TEMP              0 ****  ****    0 ROOT
