@<TRIPOS>MOLECULE
LE4
   35    36     1     0     0
SMALL
abcg2


@<TRIPOS>ATOM
      1 N1           0.9500     1.0870    -0.7160 nb         1 LE4      -0.245000
      2 N3           2.0560    -0.7740     0.2670 nb         1 LE4      -0.273000
      3 C4           2.1300     1.6640    -0.8710 ca         1 LE4       0.142900
      4 C5           0.9610    -0.1280    -0.1540 ca         1 LE4       0.389900
      5 C6          -1.5190    -0.2280    -0.2950 c3         1 LE4       0.251500
      6 C7          -2.4440    -1.4030    -0.6010 c3         1 LE4      -0.086900
      7 C8          -3.9020    -1.0550    -0.8810 c3         1 LE4      -0.065400
      8 C10         -4.5750     0.9300     0.6320 c3         1 LE4      -0.071400
      9 C11         -3.1970     1.5630     0.4240 c3         1 LE4      -0.065400
     10 C12         -1.9980     0.7030     0.8260 c3         1 LE4      -0.086900
     11 C2           3.2230    -0.1730     0.1000 ca         1 LE4       0.163300
     12 C3           3.3260     1.0850    -0.4820 ca         1 LE4      -0.259000
     13 C9          -4.6700    -0.5690     0.3490 c3         1 LE4      -0.071400
     14 N2          -0.2070    -0.7770    -0.0050 nu         1 LE4      -0.928100
     15 O1           5.5910    -0.2240     0.3790 oh         1 LE4      -0.658000
     16 H1           2.1250     2.6480    -1.3290 h4         1 LE4       0.018100
     17 H2          -1.4270     0.3760    -1.2030 h1         1 LE4       0.075700
     18 H3          -2.0290    -1.9350    -1.4630 hc         1 LE4       0.044450
     19 H4          -2.4140    -2.1090     0.2380 hc         1 LE4       0.044450
     20 H5          -3.9730    -0.3240    -1.6950 hc         1 LE4       0.040450
     21 H6          -4.3830    -1.9620    -1.2560 hc         1 LE4       0.040450
     22 H7          -4.9020     1.1030     1.6610 hc         1 LE4       0.035950
     23 H8          -5.2940     1.4610     0.0010 hc         1 LE4       0.035950
     24 H9           4.2490    -1.1980     1.6380 h1         1 LE4       0.043700
     25 H10          4.4200    -1.9090     0.0400 h1         1 LE4       0.043700
     26 H11         -3.0760     1.8510    -0.6250 hc         1 LE4       0.040450
     27 H12         -3.1690     2.5010     0.9830 hc         1 LE4       0.040450
     28 H13         -2.2140     0.1240     1.7300 hc         1 LE4       0.044450
     29 H14         -1.1650     1.3630     1.0740 hc         1 LE4       0.044450
     30 H15          4.2670     1.5900    -0.6280 ha         1 LE4       0.149000
     31 H16         -5.7270    -0.8260     0.2430 hc         1 LE4       0.035950
     32 H17         -4.3190    -1.1320     1.2200 hc         1 LE4       0.035950
     33 H18         -0.1620    -1.6490     0.4990 hn         1 LE4       0.498000
     34 H19          6.3350    -0.7880     0.6100 ho         1 LE4       0.451000
     35 C1           4.4120    -0.9540     0.5800 c3         1 LE4       0.102300
@<TRIPOS>BOND
     1     1     3 ar  
     2     1     4 ar  
     3     2     4 ar  
     4     2    11 ar  
     5     3    12 ar  
     6     3    16 1   
     7     4    14 1   
     8     5     6 1   
     9     5    10 1   
    10     5    14 1   
    11     5    17 1   
    12     6     7 1   
    13     6    18 1   
    14     6    19 1   
    15     7    13 1   
    16     7    20 1   
    17     7    21 1   
    18     8     9 1   
    19     8    13 1   
    20     8    22 1   
    21     8    23 1   
    22     9    10 1   
    23     9    26 1   
    24     9    27 1   
    25    10    28 1   
    26    10    29 1   
    27    11    12 ar  
    28    11    35 1   
    29    12    30 1   
    30    13    31 1   
    31    13    32 1   
    32    14    33 1   
    33    15    34 1   
    34    15    35 1   
    35    24    35 1   
    36    25    35 1   
@<TRIPOS>SUBSTRUCTURE
     1 LE4         1 TEMP              0 ****  ****    0 ROOT
