@<TRIPOS>MOLECULE
LE4
   35    36     1     0     0
SMALL
No Charge or Current Charge


@<TRIPOS>ATOM
      1 N1           1.0200     1.2230    -0.6870 nb         1 LE4      -0.245000
      2 N3           2.0990    -0.6860     0.3030 nb         1 LE4      -0.273000
      3 C4           2.2100     1.8480    -0.7750 ca         1 LE4       0.142900
      4 C5           1.0280    -0.0120    -0.1490 ca         1 LE4       0.389900
      5 C6          -1.5280    -0.1870    -0.3420 c3         1 LE4       0.251500
      6 C7          -2.4330    -1.3970    -0.6800 c3         1 LE4      -0.086900
      7 C8          -3.9150    -1.0740    -0.9880 c3         1 LE4      -0.065400
      8 C10         -4.6480     0.8230     0.6700 c3         1 LE4      -0.071400
      9 C11         -3.2840     1.5300     0.4930 c3         1 LE4      -0.065400
     10 C12         -2.0300     0.6930     0.8350 c3         1 LE4      -0.086900
     11 C2           3.2920    -0.0600     0.2140 ca         1 LE4       0.163300
     12 C3           3.3910     1.2340    -0.3290 ca         1 LE4      -0.259000
     13 C9          -4.7310    -0.6660     0.2600 c3         1 LE4      -0.071400
     14 N2          -0.1770    -0.6900    -0.0430 nu         1 LE4      -0.928100
     15 O1           5.3400    -1.2920    -0.3520 oh         1 LE4      -0.658000
     16 H1           2.2140     2.8470    -1.2080 h4         1 LE4       0.018100
     17 H2          -1.4850     0.4410    -1.2440 h1         1 LE4       0.075700
     18 H3          -2.0100    -1.9020    -1.5570 hc         1 LE4       0.044450
     19 H4          -2.3930    -2.1250     0.1400 hc         1 LE4       0.044450
     20 H5          -3.9880    -0.3020    -1.7640 hc         1 LE4       0.040450
     21 H6          -4.3720    -1.9780    -1.4090 hc         1 LE4       0.040450
     22 H7          -4.9510     0.9010     1.7210 hc         1 LE4       0.035950
     23 H8          -5.3960     1.3870     0.0990 hc         1 LE4       0.035950
     24 H9           5.1020    -0.1270     1.3670 h1         1 LE4       0.043700
     25 H10          4.1980    -1.6450     1.3630 h1         1 LE4       0.043700
     26 H11         -3.1990     1.8970    -0.5380 hc         1 LE4       0.040450
     27 H12         -3.2880     2.4270     1.1260 hc         1 LE4       0.040450
     28 H13         -2.2120     0.0770     1.7240 hc         1 LE4       0.044450
     29 H14         -1.2330     1.3960     1.1050 hc         1 LE4       0.044450
     30 H15          4.3490     1.7420    -0.4040 ha         1 LE4       0.149000
     31 H16         -5.7870    -0.9070     0.0820 hc         1 LE4       0.035950
     32 H17         -4.4240    -1.2910     1.1080 hc         1 LE4       0.035950
     33 H18         -0.1080    -1.6190     0.3730 hn         1 LE4       0.498000
     34 H19          6.1050    -1.7640     0.0490 ho         1 LE4       0.451000
     35 C1           4.5230    -0.8090     0.7290 c3         1 LE4       0.102300
@<TRIPOS>BOND
     1     1     3 ar  
     2     1     4 ar  
     3     2     4 ar  
     4     2    11 ar  
     5     3    12 ar  
     6     3    16 1   
     7     4    14 1   
     8     5     6 1   
     9     5    10 1   
    10     5    14 1   
    11     5    17 1   
    12     6     7 1   
    13     6    18 1   
    14     6    19 1   
    15     7    13 1   
    16     7    20 1   
    17     7    21 1   
    18     8     9 1   
    19     8    13 1   
    20     8    22 1   
    21     8    23 1   
    22     9    10 1   
    23     9    26 1   
    24     9    27 1   
    25    10    28 1   
    26    10    29 1   
    27    11    12 ar  
    28    11    35 1   
    29    12    30 1   
    30    13    31 1   
    31    13    32 1   
    32    14    33 1   
    33    15    34 1   
    34    15    35 1   
    35    24    35 1   
    36    25    35 1   
@<TRIPOS>SUBSTRUCTURE
     1 LE4         1 TEMP              0 ****  ****    0 ROOT
