@<TRIPOS>MOLECULE
LE5
   39    42     1     0     0
SMALL
abcg2


@<TRIPOS>ATOM
      1 C11          5.9850     7.5960    11.8490 ca         1 LE5      -0.131500
      2 C13          8.3950     7.0450    18.5820 c3         1 LE5       0.238000
      3 C15          3.8910     7.7590    20.8490 ca         1 LE5       0.084000
      4 C17          5.8440     9.0640    20.3820 ca         1 LE5      -0.164000
      5 C18          5.6750     6.8190    19.5480 ca         1 LE5      -0.164000
      6 C19          4.6010     8.9460    20.9730 ca         1 LE5      -0.061000
      7 C20          4.4260     6.6990    20.1410 ca         1 LE5      -0.061000
      8 C21          5.8330     6.6720    10.8150 ca         1 LE5      -0.073000
      9 C22          5.6580     8.9320    11.6230 ca         1 LE5      -0.073000
     10 C23          5.3630     7.0800     9.5770 ca         1 LE5      -0.123000
     11 C24          5.1890     9.3370    10.3830 ca         1 LE5      -0.123000
     12 C25          5.0390     8.4140     9.3570 ca         1 LE5      -0.096000
     13 N1           7.2540     5.9980    14.6880 n          1 LE5      -0.064500
     14 C2           7.1150     7.2700    15.1340 cc         1 LE5       0.665400
     15 N3           6.6340     8.0390    14.1960 nd         1 LE5      -0.730000
     16 N4           6.8480     5.9370    13.4080 nc         1 LE5      -0.490800
     17 C5           6.4900     7.1750    13.1550 cd         1 LE5       0.618500
     18 C6           7.7440     4.9150    15.4400 c          1 LE5       0.569000
     19 C7           8.1010     5.3200    16.7730 cc         1 LE5      -0.408200
     20 N8           7.4710     7.5660    16.3990 na         1 LE5      -0.745900
     21 C9           7.9650     6.5980    17.2080 cd         1 LE5       0.175800
     22 O10          7.8240     3.8080    14.9560 o          1 LE5      -0.463000
     23 N12          7.6400     8.1680    19.0590 nu         1 LE5      -0.974200
     24 C14          6.4060     8.0040    19.6600 ca         1 LE5       0.290000
     25 H30          8.3670     6.1840    19.2570 h1         1 LE5       0.070700
     26 H29          9.4400     7.3530    18.5120 h1         1 LE5       0.070700
     27 H31          6.3910     9.9940    20.4830 ha         1 LE5       0.119000
     28 H32          6.0610     5.9680    19.0010 ha         1 LE5       0.119000
     29 H33          4.1890     9.7780    21.5280 ha         1 LE5       0.131500
     30 H34          3.8790     5.7710    20.0450 ha         1 LE5       0.131500
     31 H35          6.0840     5.6320    10.9770 ha         1 LE5       0.131500
     32 H36          5.7740     9.6560    12.4190 ha         1 LE5       0.131500
     33 H37          5.2490     6.3550     8.7820 ha         1 LE5       0.114000
     34 H38          4.9400    10.3770    10.2180 ha         1 LE5       0.114000
     35 H39          4.6730     8.7300     8.3890 ha         1 LE5       0.112000
     36 H26          8.4840     4.5660    17.4460 ha         1 LE5       0.223000
     37 H27          7.3410     8.5040    16.7620 hn         1 LE5       0.551000
     38 H28          8.1930     8.9310    19.4150 hn         1 LE5       0.482000
     39 CL16         2.3280     7.6060    21.5910 cl         1 LE5      -0.199000
@<TRIPOS>BOND
     1     1     8 ar  
     2     1     9 ar  
     3     1    17 1   
     4     2    21 1   
     5     2    23 1   
     6     2    25 1   
     7     2    26 1   
     8     3     6 ar  
     9     3     7 ar  
    10     3    39 1   
    11     4     6 ar  
    12     4    24 ar  
    13     4    27 1   
    14     5     7 ar  
    15     5    24 ar  
    16     5    28 1   
    17     6    29 1   
    18     7    30 1   
    19     8    10 ar  
    20     8    31 1   
    21     9    11 ar  
    22     9    32 1   
    23    10    12 ar  
    24    10    33 1   
    25    11    12 ar  
    26    11    34 1   
    27    12    35 1   
    28    13    14 1   
    29    13    16 1   
    30    13    18 1   
    31    14    15 2   
    32    14    20 1   
    33    15    17 1   
    34    16    17 2   
    35    18    19 1   
    36    18    22 2   
    37    19    21 2   
    38    19    36 1   
    39    20    21 1   
    40    20    37 1   
    41    23    24 1   
    42    23    38 1   
@<TRIPOS>SUBSTRUCTURE
     1 LE5         1 TEMP              0 ****  ****    0 ROOT
