@<TRIPOS>MOLECULE
LE5
   39    42     1     0     0
SMALL
No Charge or Current Charge


@<TRIPOS>ATOM
      1 C11          5.8910     7.5770    12.1310 ca         1 LE5      -0.131500
      2 C13          8.5880     6.7580    18.8200 c3         1 LE5       0.238000
      3 C15          3.6570     8.2030    20.0310 ca         1 LE5       0.084000
      4 C17          5.8690     9.2150    19.9620 ca         1 LE5      -0.164000
      5 C18          5.5810     6.8880    19.3270 ca         1 LE5      -0.164000
      6 C19          4.4890     9.3180    20.2200 ca         1 LE5      -0.061000
      7 C20          4.2010     6.9870    19.5840 ca         1 LE5      -0.061000
      8 C21          5.8340     6.8040    10.9480 ca         1 LE5      -0.073000
      9 C22          5.2970     8.8610    12.1300 ca         1 LE5      -0.073000
     10 C23          5.2000     7.3020     9.7960 ca         1 LE5      -0.123000
     11 C24          4.6640     9.3560    10.9760 ca         1 LE5      -0.123000
     12 C25          4.6150     8.5780     9.8090 ca         1 LE5      -0.096000
     13 N1           7.6300     5.7440    14.6820 n          1 LE5      -0.064500
     14 C2           7.2990     6.9000    15.2580 cc         1 LE5       0.665400
     15 N3           6.6470     7.7720    14.5460 nd         1 LE5      -0.730000
     16 N4           7.1350     5.8560    13.4170 nc         1 LE5      -0.490800
     17 C5           6.5570     7.0570    13.3460 cd         1 LE5       0.618500
     18 C6           8.3210     4.7620    15.3810 c          1 LE5       0.569000
     19 C7           8.6190     5.1600    16.7720 cc         1 LE5      -0.408200
     20 N8           7.5870     7.2390    16.5320 na         1 LE5      -0.745900
     21 C9           8.2750     6.3630    17.3760 cd         1 LE5       0.175800
     22 O10          8.6480     3.6860    14.8980 o          1 LE5      -0.463000
     23 N12          7.7940     7.9410    19.2630 nu         1 LE5      -0.974200
     24 C14          6.4210     8.0030    19.5150 ca         1 LE5       0.290000
     25 H30          8.3970     5.8990    19.4780 h1         1 LE5       0.070700
     26 H29          9.6620     6.9820    18.8820 h1         1 LE5       0.070700
     27 H31          6.5070    10.0820    20.1100 ha         1 LE5       0.119000
     28 H32          5.9870     5.9420    18.9830 ha         1 LE5       0.119000
     29 H33          4.0670    10.2580    20.5660 ha         1 LE5       0.131500
     30 H34          3.5560     6.1250    19.4380 ha         1 LE5       0.131500
     31 H35          6.2810     5.8120    10.9150 ha         1 LE5       0.131500
     32 H36          5.3230     9.4810    13.0230 ha         1 LE5       0.131500
     33 H37          5.1640     6.6970     8.8930 ha         1 LE5       0.114000
     34 H38          4.2110    10.3450    10.9880 ha         1 LE5       0.114000
     35 H39          4.1250     8.9620     8.9170 ha         1 LE5       0.112000
     36 H26          9.1570     4.4050    17.3350 ha         1 LE5       0.223000
     37 H27          7.2740     8.1350    16.8840 hn         1 LE5       0.551000
     38 H28          8.3250     8.7830    19.4990 hn         1 LE5       0.482000
     39 Cl16         1.9320     8.3280    20.3520 cl         1 LE5      -0.199000
@<TRIPOS>BOND
     1     1     8 ar  
     2     1     9 ar  
     3     1    17 1   
     4     2    21 1   
     5     2    23 1   
     6     2    25 1   
     7     2    26 1   
     8     3     6 ar  
     9     3     7 ar  
    10     3    39 1   
    11     4     6 ar  
    12     4    24 ar  
    13     4    27 1   
    14     5     7 ar  
    15     5    24 ar  
    16     5    28 1   
    17     6    29 1   
    18     7    30 1   
    19     8    10 ar  
    20     8    31 1   
    21     9    11 ar  
    22     9    32 1   
    23    10    12 ar  
    24    10    33 1   
    25    11    12 ar  
    26    11    34 1   
    27    12    35 1   
    28    13    14 1   
    29    13    16 1   
    30    13    18 1   
    31    14    15 2   
    32    14    20 1   
    33    15    17 1   
    34    16    17 2   
    35    18    19 1   
    36    18    22 2   
    37    19    21 2   
    38    19    36 1   
    39    20    21 1   
    40    20    37 1   
    41    23    24 1   
    42    23    38 1   
@<TRIPOS>SUBSTRUCTURE
     1 LE5         1 TEMP              0 ****  ****    0 ROOT
