@<TRIPOS>MOLECULE
LE6
   53    55     1     0     0
SMALL
abcg2


@<TRIPOS>ATOM
      1 C7          66.4200    66.5100    78.8300 ca         1 LE6      -0.064500
      2 C8          67.0730    65.2870    78.7400 ca         1 LE6      -0.117300
      3 C9          67.3610    64.6480    77.4020 c3         1 LE6       0.025200
      4 O1          66.1900    66.8880    82.4800 os         1 LE6      -0.349100
      5 C1          68.1800    66.9730    74.5000 ca         1 LE6      -0.088300
      6 O5          68.2870    65.9900    71.6980 oh         1 LE6      -0.722000
      7 C5          68.1350    65.5320    76.4640 ca         1 LE6      -0.072300
      8 C6          67.5010    66.1440    75.3880 ca         1 LE6      -0.081000
      9 C4          69.4980    65.7790    76.6250 ca         1 LE6       0.135000
     10 O4          64.4620    68.5580    70.6470 oh         1 LE6      -0.698000
     11 C3          70.2010    66.5940    75.7540 ca         1 LE6      -0.107000
     12 O3          65.9020    66.2280    70.1980 oh         1 LE6      -0.647000
     13 C2          69.5360    67.1910    74.6920 ca         1 LE6      -0.088000
     14 CL1         70.3560    65.0440    77.9410 cl         1 LE6      -0.199000
     15 C10         66.0990    67.0820    80.0550 ca         1 LE6      -0.171500
     16 C11         66.4360    66.4240    81.2370 ca         1 LE6       0.145100
     17 C12         67.0980    65.1990    81.1600 ca         1 LE6      -0.171500
     18 C13         67.4100    64.6480    79.9300 ca         1 LE6      -0.064500
     19 C14         65.3860    68.0460    82.6610 c3         1 LE6       0.163600
     20 C15         63.9080    67.7770    82.4560 c3         1 LE6      -0.128100
     21 C16         67.4590    67.5880    73.3330 c6         1 LE6       0.188600
     22 O2          66.2720    68.1770    73.8070 os         1 LE6      -0.431000
     23 C17         65.5420    68.8580    72.8080 c6         1 LE6       0.132300
     24 C18         65.1030    67.8840    71.7040 c6         1 LE6       0.145300
     25 C19         66.3270    67.1820    71.1370 c6         1 LE6       0.178300
     26 C20         67.1240    66.5390    72.2650 c6         1 LE6       0.100300
     27 C21         64.3580    69.5150    73.4830 c3         1 LE6       0.171600
     28 O6          64.8250    70.4600    74.4160 oh         1 LE6      -0.702000
     29 H1          66.1410    67.0410    77.9260 ha         1 LE6       0.114000
     30 H2          66.4180    64.3810    76.9180 hc         1 LE6       0.056200
     31 H3          67.8980    63.7100    77.5600 hc         1 LE6       0.056200
     32 H5          66.4430    65.9550    75.2460 ha         1 LE6       0.124000
     33 H6          63.5260    68.6380    70.8480 ho         1 LE6       0.506000
     34 H7          71.2590    66.7660    75.9010 ha         1 LE6       0.132000
     35 H8          66.6830    65.7760    69.8630 ho         1 LE6       0.460000
     36 H9          70.0860    67.8350    74.0170 ha         1 LE6       0.122000
     37 H10         65.5860    68.0340    80.0620 ha         1 LE6       0.121500
     38 H11         67.3680    64.6820    82.0730 ha         1 LE6       0.121500
     39 H12         67.9240    63.6940    79.8980 ha         1 LE6       0.114000
     40 H13         65.7310    68.8650    82.0220 h1         1 LE6       0.051700
     41 H14         65.5680    68.3530    83.6910 h1         1 LE6       0.051700
     42 H15         63.3430    68.6830    82.6750 hc         1 LE6       0.045367
     43 H16         63.6760    67.4820    81.4330 hc         1 LE6       0.045367
     44 H17         63.5580    66.9930    83.1270 hc         1 LE6       0.045367
     45 H18         68.1090    68.3490    72.8720 h1         1 LE6       0.057700
     46 H19         66.1720    69.6370    72.3460 h1         1 LE6       0.064700
     47 H20         64.4440    67.1260    72.1530 h1         1 LE6       0.050700
     48 H21         66.9690    67.9440    70.6620 h1         1 LE6       0.055700
     49 H22         66.4980    65.7610    72.7270 h1         1 LE6       0.052700
     50 H23         63.7360    69.9890    72.7150 h1         1 LE6       0.024700
     51 H24         63.7450    68.7370    73.9590 h1         1 LE6       0.024700
     52 H25         64.0610    70.8890    74.8110 ho         1 LE6       0.503000
     53 H4          68.6590    65.3420    72.3050 ho         1 LE6       0.518000
@<TRIPOS>BOND
     1     1     2 ar  
     2     1    15 ar  
     3     1    29 1   
     4     2     3 1   
     5     2    18 ar  
     6     3     7 1   
     7     3    30 1   
     8     3    31 1   
     9     4    16 1   
    10     4    19 1   
    11     5     8 ar  
    12     5    13 ar  
    13     5    21 1   
    14     6    26 1   
    15     6    53 1   
    16     7     8 ar  
    17     7     9 ar  
    18     8    32 1   
    19     9    11 ar  
    20     9    14 1   
    21    10    24 1   
    22    10    33 1   
    23    11    13 ar  
    24    11    34 1   
    25    12    25 1   
    26    12    35 1   
    27    13    36 1   
    28    15    16 ar  
    29    15    37 1   
    30    16    17 ar  
    31    17    18 ar  
    32    17    38 1   
    33    18    39 1   
    34    19    20 1   
    35    19    40 1   
    36    19    41 1   
    37    20    42 1   
    38    20    43 1   
    39    20    44 1   
    40    21    22 1   
    41    21    26 1   
    42    21    45 1   
    43    22    23 1   
    44    23    24 1   
    45    23    27 1   
    46    23    46 1   
    47    24    25 1   
    48    24    47 1   
    49    25    26 1   
    50    25    48 1   
    51    26    49 1   
    52    27    28 1   
    53    27    50 1   
    54    27    51 1   
    55    28    52 1   
@<TRIPOS>SUBSTRUCTURE
     1 LE6         1 TEMP              0 ****  ****    0 ROOT
