@<TRIPOS>MOLECULE
LE6
   53    55     1     0     0
SMALL
No Charge or Current Charge


@<TRIPOS>ATOM
      1 C7          66.2770    66.3480    78.7040 ca         1 LE6      -0.064500
      2 C8          67.1270    65.2250    78.7280 ca         1 LE6      -0.117300
      3 C9          67.4800    64.5040    77.4310 c3         1 LE6       0.025200
      4 O1          66.1890    67.1860    82.3330 os         1 LE6      -0.349100
      5 C1          68.2290    66.8590    74.4870 ca         1 LE6      -0.088300
      6 O5          68.0160    65.7070    71.6860 oh         1 LE6      -0.722000
      7 C5          68.2470    65.4060    76.4650 ca         1 LE6      -0.072300
      8 C6          67.5590    66.0110    75.3930 ca         1 LE6      -0.081000
      9 C4          69.6280    65.6610    76.6250 ca         1 LE6       0.135000
     10 O4          64.2680    68.7670    70.8070 oh         1 LE6      -0.698000
     11 C3          70.2980    66.5060    75.7250 ca         1 LE6      -0.107000
     12 O3          65.6010    66.2640    70.2460 oh         1 LE6      -0.647000
     13 C2          69.6040    67.1040    74.6610 ca         1 LE6      -0.088000
     14 Cl1         70.5540    64.9400    77.9430 cl         1 LE6      -0.199000
     15 C10         65.9480    67.0190    79.8950 ca         1 LE6      -0.171500
     16 C11         66.4650    66.5670    81.1280 ca         1 LE6       0.145100
     17 C12         67.3170    65.4510    81.1490 ca         1 LE6      -0.171500
     18 C13         67.6450    64.7800    79.9600 ca         1 LE6      -0.064500
     19 C14         65.1890    68.2130    82.4890 c3         1 LE6       0.163600
     20 C15         63.7920    67.5620    82.4270 c3         1 LE6      -0.128100
     21 C16         67.4710    67.5120    73.3240 c6         1 LE6       0.188600
     22 O2          66.3610    68.2600    73.8720 os         1 LE6      -0.431000
     23 C17         65.6020    69.0210    72.8930 c6         1 LE6       0.132300
     24 C18         64.9900    68.0550    71.8310 c6         1 LE6       0.145300
     25 C19         66.1310    67.2100    71.1890 c6         1 LE6       0.178300
     26 C20         66.9430    66.4670    72.2880 c6         1 LE6       0.100300
     27 C21         64.5100    69.8470    73.6480 c3         1 LE6       0.171600
     28 O6          65.0510    70.7140    74.6650 oh         1 LE6      -0.702000
     29 H1          65.8720    66.7040    77.7590 ha         1 LE6       0.114000
     30 H2          66.5580    64.1460    76.9580 hc         1 LE6       0.056200
     31 H3          68.0600    63.5960    77.6370 hc         1 LE6       0.056200
     32 H5          66.4940    65.8290    75.2670 ha         1 LE6       0.124000
     33 H6          64.1700    68.1210    70.0660 ho         1 LE6       0.506000
     34 H7          71.3600    66.6980    75.8540 ha         1 LE6       0.132000
     35 H8          66.3180    65.5950    70.1450 ho         1 LE6       0.460000
     36 H9          70.1370    67.7580    73.9730 ha         1 LE6       0.122000
     37 H10         65.2980    67.8860    79.8370 ha         1 LE6       0.121500
     38 H11         67.7230    65.1030    82.0960 ha         1 LE6       0.121500
     39 H12         68.3050    63.9160    79.9970 ha         1 LE6       0.114000
     40 H13         65.2910    68.9970    81.7280 h1         1 LE6       0.051700
     41 H14         65.3040    68.6920    83.4700 h1         1 LE6       0.051700
     42 H15         63.0170    68.3170    82.6050 hc         1 LE6       0.045367
     43 H16         63.6040    67.1070    81.4490 hc         1 LE6       0.045367
     44 H17         63.6950    66.7870    83.1960 hc         1 LE6       0.045367
     45 H18         68.1420    68.2180    72.8120 h1         1 LE6       0.057700
     46 H19         66.2800    69.7290    72.3930 h1         1 LE6       0.064700
     47 H20         64.3070    67.3670    72.3520 h1         1 LE6       0.050700
     48 H21         66.8170    67.8990    70.6730 h1         1 LE6       0.055700
     49 H22         66.2580    65.7850    72.8150 h1         1 LE6       0.052700
     50 H23         63.9550    70.4440    72.9110 h1         1 LE6       0.024700
     51 H24         63.7970    69.1420    74.0980 h1         1 LE6       0.024700
     52 H25         64.2850    71.1360    75.1180 ho         1 LE6       0.503000
     53 H4          68.5100    65.2690    72.4190 ho         1 LE6       0.518000
@<TRIPOS>BOND
     1     1     2 ar  
     2     1    15 ar  
     3     1    29 1   
     4     2     3 1   
     5     2    18 ar  
     6     3     7 1   
     7     3    30 1   
     8     3    31 1   
     9     4    16 1   
    10     4    19 1   
    11     5     8 ar  
    12     5    13 ar  
    13     5    21 1   
    14     6    26 1   
    15     6    53 1   
    16     7     8 ar  
    17     7     9 ar  
    18     8    32 1   
    19     9    11 ar  
    20     9    14 1   
    21    10    24 1   
    22    10    33 1   
    23    11    13 ar  
    24    11    34 1   
    25    12    25 1   
    26    12    35 1   
    27    13    36 1   
    28    15    16 ar  
    29    15    37 1   
    30    16    17 ar  
    31    17    18 ar  
    32    17    38 1   
    33    18    39 1   
    34    19    20 1   
    35    19    40 1   
    36    19    41 1   
    37    20    42 1   
    38    20    43 1   
    39    20    44 1   
    40    21    22 1   
    41    21    26 1   
    42    21    45 1   
    43    22    23 1   
    44    23    24 1   
    45    23    27 1   
    46    23    46 1   
    47    24    25 1   
    48    24    47 1   
    49    25    26 1   
    50    25    48 1   
    51    26    49 1   
    52    27    28 1   
    53    27    50 1   
    54    27    51 1   
    55    28    52 1   
@<TRIPOS>SUBSTRUCTURE
     1 LE6         1 TEMP              0 ****  ****    0 ROOT
