@<TRIPOS>MOLECULE
LE8
   34    36     1     0     0
SMALL
abcg2


@<TRIPOS>ATOM
      1 C1          51.0700   -25.9640    38.2040 ca         1 LE8       0.206500
      2 C2          51.5610   -24.8390    37.5570 ca         1 LE8      -0.173300
      3 C3          52.9510   -24.7890    36.9730 c3         1 LE8      -0.032400
      4 C4          52.9820   -25.2730    35.5720 cc         1 LE8       0.084300
      5 C5          53.3580   -24.7730    34.3810 cd         1 LE8       0.274900
      6 C6          52.6390   -26.7160    34.0170 cc         1 LE8       0.697900
      7 C7          51.6370   -28.9940    33.9960 ca         1 LE8       0.362000
      8 C8          51.4310   -30.0950    33.1490 ca         1 LE8      -0.184000
      9 C9          50.8020   -31.2260    33.6070 ca         1 LE8      -0.024000
     10 C10         50.3520   -31.3110    34.9290 ca         1 LE8      -0.055000
     11 C11         49.7040   -32.4850    35.3950 cg         1 LE8       0.332000
     12 C12         50.5600   -30.2140    35.7640 ca         1 LE8       0.188000
     13 C13         51.1910   -29.0690    35.3210 ca         1 LE8      -0.162000
     14 C14         50.6750   -23.7760    37.4500 ca         1 LE8       0.206500
     15 C15         49.3910   -23.8010    37.9590 ca         1 LE8      -0.168000
     16 C16         48.9580   -24.9510    38.6010 ca         1 LE8      -0.053000
     17 C17         49.7940   -26.0490    38.7270 ca         1 LE8      -0.168000
     18 F1          51.8770   -27.0290    38.3200 f          1 LE8      -0.170500
     19 F2          51.0890   -22.6690    36.8180 f          1 LE8      -0.170500
     20 N1          53.1350   -25.7070    33.3860 nd         1 LE8      -0.731000
     21 N2          52.2630   -27.8970    33.4520 nu         1 LE8      -0.929900
     22 N3          49.1790   -33.4480    35.7520 n1         1 LE8      -0.444000
     23 O1          52.5180   -26.5440    35.3290 os         1 LE8      -0.272000
     24 CL1         50.0150   -30.2750    37.3960 cl         1 LE8      -0.170000
     25 H1          53.6360   -25.3740    37.5910 hc         1 LE8       0.079200
     26 H2          53.3350   -23.7700    36.9820 hc         1 LE8       0.079200
     27 H3          53.7710   -23.8000    34.1700 h4         1 LE8       0.052100
     28 H5          51.7730   -30.0550    32.1230 ha         1 LE8       0.124000
     29 H6          50.6530   -32.0630    32.9390 ha         1 LE8       0.131000
     30 H7          51.3230   -28.2590    36.0170 ha         1 LE8       0.157000
     31 H8          48.7460   -22.9390    37.8530 ha         1 LE8       0.140000
     32 H9          47.9560   -24.9930    39.0050 ha         1 LE8       0.125000
     33 H10         49.4680   -26.9550    39.2210 ha         1 LE8       0.140000
     34 H4          52.4680   -27.9430    32.4640 hn         1 LE8       0.527000
@<TRIPOS>BOND
     1     1     2 ar  
     2     1    17 ar  
     3     1    18 1   
     4     2     3 1   
     5     2    14 ar  
     6     3     4 1   
     7     3    25 1   
     8     3    26 1   
     9     4     5 2   
    10     4    23 1   
    11     5    20 1   
    12     5    27 1   
    13     6    20 2   
    14     6    21 1   
    15     6    23 1   
    16     7     8 ar  
    17     7    13 ar  
    18     7    21 1   
    19     8     9 ar  
    20     8    28 1   
    21     9    10 ar  
    22     9    29 1   
    23    10    11 1   
    24    10    12 ar  
    25    11    22 3   
    26    12    13 ar  
    27    12    24 1   
    28    13    30 1   
    29    14    15 ar  
    30    14    19 1   
    31    15    16 ar  
    32    15    31 1   
    33    16    17 ar  
    34    16    32 1   
    35    17    33 1   
    36    21    34 1   
@<TRIPOS>SUBSTRUCTURE
     1 LE8         1 TEMP              0 ****  ****    0 ROOT
