@<TRIPOS>MOLECULE
LE8
   34    36     1     0     0
SMALL
No Charge or Current Charge


@<TRIPOS>ATOM
      1 C1          50.7380   -25.5350    38.4900 ca         1 LE8       0.206500
      2 C2          51.5740   -24.6510    37.7750 ca         1 LE8      -0.173300
      3 C3          52.8570   -25.1520    37.1070 c3         1 LE8      -0.032400
      4 C4          52.6220   -25.5830    35.6870 cc         1 LE8       0.084300
      5 C5          52.7150   -24.8980    34.5010 cd         1 LE8       0.274900
      6 C6          52.0650   -26.8520    34.0910 cc         1 LE8       0.697900
      7 C7          51.4100   -29.2530    33.7930 ca         1 LE8       0.362000
      8 C8          51.6990   -30.2990    32.9050 ca         1 LE8      -0.184000
      9 C9          51.4200   -31.6320    33.2560 ca         1 LE8      -0.024000
     10 C10         50.8380   -31.9250    34.5050 ca         1 LE8      -0.055000
     11 C11         50.5580   -33.2890    34.8530 cg         1 LE8       0.332000
     12 C12         50.5370   -30.8700    35.3920 ca         1 LE8       0.188000
     13 C13         50.8200   -29.5440    35.0320 ca         1 LE8      -0.162000
     14 C14         51.1880   -23.2990    37.6680 ca         1 LE8       0.206500
     15 C15         50.0060   -22.8380    38.2700 ca         1 LE8      -0.168000
     16 C16         49.1870   -23.7250    38.9870 ca         1 LE8      -0.053000
     17 C17         49.5560   -25.0760    39.0930 ca         1 LE8      -0.168000
     18 F1          51.0610   -26.8440    38.6010 f          1 LE8      -0.170500
     19 F2          51.9510   -22.4250    36.9730 f          1 LE8      -0.170500
     20 N1          52.3620   -25.7450    33.4660 nd         1 LE8      -0.731000
     21 N2          51.6930   -27.9490    33.4100 nu         1 LE8      -0.929900
     22 N3          50.3340   -34.4030    35.1230 n1         1 LE8      -0.444000
     23 O1          52.2090   -26.8500    35.4370 os         1 LE8      -0.272000
     24 Cl1         49.7960   -31.1740    36.9660 cl         1 LE8      -0.170000
     25 H1          53.2860   -25.9880    37.6730 hc         1 LE8       0.079200
     26 H2          53.6290   -24.3730    37.1260 hc         1 LE8       0.079200
     27 H3          53.0090   -23.8680    34.3380 h4         1 LE8       0.052100
     28 H5          52.1490   -30.0850    31.9390 ha         1 LE8       0.124000
     29 H6          51.6550   -32.4330    32.5580 ha         1 LE8       0.131000
     30 H7          50.5650   -28.7450    35.7190 ha         1 LE8       0.157000
     31 H8          49.7260   -21.7920    38.1770 ha         1 LE8       0.140000
     32 H9          48.2690   -23.3700    39.4530 ha         1 LE8       0.125000
     33 H10         48.9250   -25.7720    39.6410 ha         1 LE8       0.140000
     34 H4          51.8500   -27.8060    32.4170 hn         1 LE8       0.527000
@<TRIPOS>BOND
     1     1     2 ar  
     2     1    17 ar  
     3     1    18 1   
     4     2     3 1   
     5     2    14 ar  
     6     3     4 1   
     7     3    25 1   
     8     3    26 1   
     9     4     5 2   
    10     4    23 1   
    11     5    20 1   
    12     5    27 1   
    13     6    20 2   
    14     6    21 1   
    15     6    23 1   
    16     7     8 ar  
    17     7    13 ar  
    18     7    21 1   
    19     8     9 ar  
    20     8    28 1   
    21     9    10 ar  
    22     9    29 1   
    23    10    11 1   
    24    10    12 ar  
    25    11    22 3   
    26    12    13 ar  
    27    12    24 1   
    28    13    30 1   
    29    14    15 ar  
    30    14    19 1   
    31    15    16 ar  
    32    15    31 1   
    33    16    17 ar  
    34    16    32 1   
    35    17    33 1   
    36    21    34 1   
@<TRIPOS>SUBSTRUCTURE
     1 LE8         1 TEMP              0 ****  ****    0 ROOT
