@<TRIPOS>MOLECULE
LE9
   14    14     1     0     0
SMALL
No Charge or Current Charge


@<TRIPOS>ATOM
      1 C1           5.6770     4.4550     7.9730 cc         1 LE9      -0.133900
      2 C2           6.2550     3.1800     7.9050 cc         1 LE9       0.502900
      3 C3           5.0200     4.4920     9.1710 cd         1 LE9      -0.206300
      4 C4           4.2080     5.5980     9.8120 c3         1 LE9       0.379300
      5 F1           3.7160     5.2380    11.0190 f          1 LE9      -0.099667
      6 F2           3.1520     5.9480     9.0430 f          1 LE9      -0.099667
      7 F3           4.9490     6.7120    10.0030 f          1 LE9      -0.099667
      8 N1           6.0360     2.4040     8.9260 nd         1 LE9      -0.548800
      9 N2           5.2520     3.2250     9.7440 na         1 LE9       0.025800
     10 N3           6.9890     2.7470     6.8660 nv         1 LE9      -1.009900
     11 Br1          5.7790     5.8350     6.6830 br         1 LE9      -0.031100
     12 H2           7.1440     1.7470     6.8030 hn         1 LE9       0.462500
     13 H3           6.9170     3.2580     5.9910 hn         1 LE9       0.462500
     14 H1           4.9050     2.8990    10.6490 hn         1 LE9       0.395000
@<TRIPOS>BOND
     1     1     2 1   
     2     1     3 2   
     3     1    11 1   
     4     2     8 2   
     5     2    10 1   
     6     3     4 1   
     7     3     9 1   
     8     4     5 1   
     9     4     6 1   
    10     4     7 1   
    11     8     9 1   
    12     9    14 1   
    13    10    12 1   
    14    10    13 1   
@<TRIPOS>SUBSTRUCTURE
     1 LE9         1 TEMP              0 ****  ****    0 ROOT
