@<TRIPOS>MOLECULE
LE9
   14    14     1     0     0
SMALL
abcg2


@<TRIPOS>ATOM
      1 C1           5.6540     4.4840     7.9440 cc         1 LE9      -0.133900
      2 C2           6.2610     3.2080     7.8580 cc         1 LE9       0.502900
      3 C3           5.0090     4.4990     9.1660 cd         1 LE9      -0.206300
      4 C4           4.2150     5.5680     9.8320 c3         1 LE9       0.379300
      5 F1           3.6710     5.1230    10.9810 f          1 LE9      -0.099667
      6 F2           3.2100     6.0120     9.0510 f          1 LE9      -0.099667
      7 F3           4.9690     6.6460    10.1380 f          1 LE9      -0.099667
      8 N1           5.9960     2.4990     8.9560 nd         1 LE9      -0.548800
      9 N2           5.2430     3.3030     9.7360 na         1 LE9       0.025800
     10 N3           7.0770     2.7370     6.8550 nv         1 LE9      -1.009900
     11 BR1          5.7280     5.8520     6.6600 br         1 LE9      -0.031100
     12 H2           7.1840     1.7320     6.8480 hn         1 LE9       0.462500
     13 H3           6.8740     3.1030     5.9360 hn         1 LE9       0.462500
     14 H1           4.9080     2.9720    10.6280 hn         1 LE9       0.395000
@<TRIPOS>BOND
     1     1     2 1   
     2     1     3 2   
     3     1    11 1   
     4     2     8 2   
     5     2    10 1   
     6     3     4 1   
     7     3     9 1   
     8     4     5 1   
     9     4     6 1   
    10     4     7 1   
    11     8     9 1   
    12     9    14 1   
    13    10    12 1   
    14    10    13 1   
@<TRIPOS>SUBSTRUCTURE
     1 LE9         1 TEMP              0 ****  ****    0 ROOT
