@<TRIPOS>MOLECULE
LEA
   16    15     1     0     0
SMALL
bcc


@<TRIPOS>ATOM
      1 C2          -1.6700    -0.0480     0.0220 c          1 LEA       0.927600
      2 O2          -2.6790     0.6890    -0.0100 o          1 LEA      -0.849800
      3 C3          -0.3110     0.6750     0.0310 c3         1 LEA      -0.204400
      4 C4           0.9230    -0.2120     0.0280 c3         1 LEA      -0.055400
      5 C5           2.2240     0.5830     0.0290 c3         1 LEA      -0.081400
      6 C6           3.4590    -0.3090     0.0200 c3         1 LEA      -0.084100
      7 O1          -1.6700    -1.2940     0.0510 o          1 LEA      -0.849800
      8 H31         -0.2790     1.3510    -0.8320 hc         1 LEA       0.013700
      9 H32         -0.2830     1.3370     0.9050 hc         1 LEA       0.013700
     10 H41          0.9070    -0.8740     0.8990 hc         1 LEA       0.037200
     11 H42          0.9060    -0.8700    -0.8470 hc         1 LEA       0.037200
     12 H51          2.2490     1.2460    -0.8420 hc         1 LEA       0.022700
     13 H52          2.2500     1.2370     0.9060 hc         1 LEA       0.022700
     14 H61          3.4870    -0.9530     0.9010 hc         1 LEA       0.016700
     15 H62          3.4670    -0.9560    -0.8600 hc         1 LEA       0.016700
     16 H63          4.3810     0.2740     0.0080 hc         1 LEA       0.016700
@<TRIPOS>BOND
     1     1     2 1   
     2     1     3 1   
     3     1     7 1   
     4     3     4 1   
     5     3     8 1   
     6     3     9 1   
     7     4     5 1   
     8     4    10 1   
     9     4    11 1   
    10     5     6 1   
    11     5    12 1   
    12     5    13 1   
    13     6    14 1   
    14     6    15 1   
    15     6    16 1   
@<TRIPOS>SUBSTRUCTURE
     1 LEA         1 TEMP              0 ****  ****    0 ROOT
