@<TRIPOS>MOLECULE
LEA
   16    15     1     0     0
SMALL
No Charge or Current Charge


@<TRIPOS>ATOM
      1 C2          -1.6420    -0.0740     0.0560 c          1 LEA       0.717000
      2 O2          -2.1470    -0.1170    -1.0560 o          1 LEA      -0.744500
      3 C3          -0.3440     0.7360     0.2350 c3         1 LEA      -0.204400
      4 C4           0.8880    -0.1600    -0.0430 c3         1 LEA      -0.055400
      5 C5           2.2310     0.5860     0.1180 c3         1 LEA      -0.081400
      6 C6           3.4550    -0.3070    -0.1600 c3         1 LEA      -0.084100
      7 O1          -2.0840    -0.6760     1.0220 o          1 LEA      -0.744500
      8 H31         -0.2950     1.5500    -0.4990 hc         1 LEA       0.013700
      9 H32         -0.2420     1.0730     1.2740 hc         1 LEA       0.013700
     10 H41          0.8700    -1.0190     0.6390 hc         1 LEA       0.037200
     11 H42          0.8190    -0.5610    -1.0620 hc         1 LEA       0.037200
     12 H51          2.2550     1.4440    -0.5660 hc         1 LEA       0.022700
     13 H52          2.3060     0.9860     1.1360 hc         1 LEA       0.022700
     14 H61          3.4800    -1.1570     0.5330 hc         1 LEA       0.016700
     15 H62          3.4290    -0.6950    -1.1850 hc         1 LEA       0.016700
     16 H63          4.3820     0.2660    -0.0330 hc         1 LEA       0.016700
@<TRIPOS>BOND
     1     1     2 1   
     2     1     3 1   
     3     1     7 1   
     4     3     4 1   
     5     3     8 1   
     6     3     9 1   
     7     4     5 1   
     8     4    10 1   
     9     4    11 1   
    10     5     6 1   
    11     5    12 1   
    12     5    13 1   
    13     6    14 1   
    14     6    15 1   
    15     6    16 1   
@<TRIPOS>SUBSTRUCTURE
     1 LEA         1 TEMP              0 ****  ****    0 ROOT
