@<TRIPOS>MOLECULE
LEB
   36    38     1     0     0
SMALL
No Charge or Current Charge


@<TRIPOS>ATOM
      1 C4          -2.7600     1.3060    -0.9170 ca         1 LEB      -0.139000
      2 C5          -1.5630     0.6160    -0.6930 ca         1 LEB       0.007800
      3 C6           0.2000     2.4210    -0.9920 c3         1 LEB       0.016600
      4 N1          -0.2220     1.0350    -0.6960 na         1 LEB      -0.107600
      5 C7           0.3040     3.3300     0.2520 c3         1 LEB       0.278000
      6 C8           0.6770    -0.0060    -0.4090 ca         1 LEB       0.001800
      7 C9          -0.1210    -1.1320    -0.2160 cp         1 LEB      -0.064000
      8 C10          0.4710    -2.3710     0.0980 ca         1 LEB      -0.052000
      9 C11          1.8780    -2.4320     0.2090 ca         1 LEB      -0.117000
     10 C12          2.6690    -1.2730     0.0100 ca         1 LEB       0.010100
     11 C13          2.0730    -0.0340    -0.3040 ca         1 LEB      -0.112000
     12 C14         -1.5190    -0.7440    -0.3940 cp         1 LEB      -0.085000
     13 C15         -2.7120    -1.4860    -0.3080 ca         1 LEB      -0.025000
     14 Br           4.5710    -1.3890     0.1710 br         1 LEB      -0.097100
     15 F2           0.6920     4.5750    -0.1040 f          1 LEB      -0.109000
     16 F1          -0.8870     3.4330     0.8860 f          1 LEB      -0.109000
     17 F            1.2080     2.8500     1.1360 f          1 LEB      -0.109000
     18 C3          -3.9600     0.5670    -0.8320 ca         1 LEB      -0.072000
     19 C2          -3.9420    -0.8220    -0.5310 ca         1 LEB      -0.121300
     20 C1          -5.2450    -1.6020    -0.4500 c3         1 LEB       0.208100
     21 N           -5.6530    -1.7710     0.9550 n7         1 LEB      -0.864400
     22 C           -6.9290    -2.4850     1.1550 c3         1 LEB       0.145100
     23 H1          -2.7720     2.3680    -1.1440 ha         1 LEB       0.121000
     24 H2           1.1730     2.3950    -1.4950 h1         1 LEB       0.092200
     25 H3          -0.5120     2.8650    -1.6970 h1         1 LEB       0.092200
     26 H4          -0.1400    -3.2570     0.2510 ha         1 LEB       0.125000
     27 H5           2.3570    -3.3780     0.4510 ha         1 LEB       0.132000
     28 H6           2.6760     0.8580    -0.4540 ha         1 LEB       0.134000
     29 H7          -2.6860    -2.5470    -0.0710 ha         1 LEB       0.133000
     30 H8          -4.9080     1.0730    -1.0010 ha         1 LEB       0.112000
     31 H9          -6.0230    -1.0670    -1.0140 h1         1 LEB       0.035700
     32 H10         -5.1080    -2.5810    -0.9310 h1         1 LEB       0.035700
     33 H11         -5.7410    -0.8340     1.3670 hn         1 LEB       0.413000
     34 H13         -7.7580    -1.9500     0.6720 h1         1 LEB       0.029700
     35 H14         -6.8800    -3.4980     0.7340 h1         1 LEB       0.029700
     36 H15         -7.1580    -2.5730     2.2260 h1         1 LEB       0.029700
@<TRIPOS>BOND
     1     1     2 ar  
     2     1    18 ar  
     3     1    23 1   
     4     2     4 1   
     5     2    12 ar  
     6     3     4 1   
     7     3     5 1   
     8     3    24 1   
     9     3    25 1   
    10     4     6 1   
    11     5    15 1   
    12     5    16 1   
    13     5    17 1   
    14     6     7 ar  
    15     6    11 ar  
    16     7     8 ar  
    17     7    12 1   
    18     8     9 ar  
    19     8    26 1   
    20     9    10 ar  
    21     9    27 1   
    22    10    11 ar  
    23    10    14 1   
    24    11    28 1   
    25    12    13 ar  
    26    13    19 ar  
    27    13    29 1   
    28    18    19 ar  
    29    18    30 1   
    30    19    20 1   
    31    20    21 1   
    32    20    31 1   
    33    20    32 1   
    34    21    22 1   
    35    21    33 1   
    36    22    34 1   
    37    22    35 1   
    38    22    36 1   
@<TRIPOS>SUBSTRUCTURE
     1 LEB         1 TEMP              0 ****  ****    0 ROOT
