@<TRIPOS>MOLECULE
LEB
   36    38     1     0     0
SMALL
bcc


@<TRIPOS>ATOM
      1 C4          -2.7010     1.3540    -0.9430 ca         1 LEB      -0.157000
      2 C5          -1.5400     0.6440    -0.6700 ca         1 LEB       0.007800
      3 C6           0.2300     2.3600    -1.1010 c3         1 LEB      -0.012700
      4 N1          -0.2220     1.0600    -0.7060 na         1 LEB      -0.078300
      5 C7           0.3410     3.3000     0.0820 c3         1 LEB       0.641900
      6 C8           0.5870     0.0010    -0.3580 ca         1 LEB       0.001800
      7 C9          -0.2170    -1.1250    -0.0990 cp         1 LEB      -0.064000
      8 C10          0.3800    -2.3250     0.2660 ca         1 LEB      -0.070000
      9 C11          1.7590    -2.3990     0.3620 ca         1 LEB      -0.135000
     10 C12          2.5290    -1.2650     0.0910 ca         1 LEB       0.010100
     11 C13          1.9740    -0.0480    -0.2670 ca         1 LEB      -0.130000
     12 C14         -1.5820    -0.7140    -0.3060 cp         1 LEB      -0.085000
     13 C15         -2.8020    -1.3730    -0.2150 ca         1 LEB      -0.043000
     14 BR           4.4090    -1.3940     0.2260 br         1 LEB      -0.097100
     15 F2           0.7480     4.5120    -0.3090 f          1 LEB      -0.230300
     16 F1          -0.8300     3.4510     0.7120 f          1 LEB      -0.230300
     17 F            1.2150     2.8550     0.9930 f          1 LEB      -0.230300
     18 C3          -3.9040     0.6710    -0.8460 ca         1 LEB      -0.090000
     19 C2          -3.9740    -0.6830    -0.4930 ca         1 LEB      -0.121300
     20 C1          -5.3050    -1.3810    -0.4000 c3         1 LEB       0.208100
     21 N           -5.4680    -2.0370     0.8830 n7         1 LEB      -0.809200
     22 C           -6.7490    -2.7000     1.0110 c3         1 LEB       0.145100
     23 H1          -2.6900     2.4010    -1.2140 ha         1 LEB       0.139000
     24 H2           1.2030     2.2860    -1.5900 h1         1 LEB       0.092200
     25 H3          -0.4570     2.7860    -1.8330 h1         1 LEB       0.092200
     26 H4          -0.2180    -3.2040     0.4710 ha         1 LEB       0.143000
     27 H5           2.2300    -3.3280     0.6510 ha         1 LEB       0.150000
     28 H6           2.5930     0.8150    -0.4700 ha         1 LEB       0.152000
     29 H7          -2.8430    -2.4170     0.0710 ha         1 LEB       0.151000
     30 H8          -4.8230     1.2080    -1.0470 ha         1 LEB       0.130000
     31 H9          -6.1090    -0.6590    -0.6190 h1         1 LEB       0.035700
     32 H10         -5.3720    -2.1510    -1.1760 h1         1 LEB       0.035700
     33 H11         -5.3680    -1.3500     1.6190 hn         1 LEB       0.357800
     34 H13         -7.6150    -2.0410     0.8610 h1         1 LEB       0.029700
     35 H14         -6.8230    -3.5080     0.2810 h1         1 LEB       0.029700
     36 H15         -6.8360    -3.1440     2.0030 h1         1 LEB       0.029700
@<TRIPOS>BOND
     1     1     2 ar  
     2     1    18 ar  
     3     1    23 1   
     4     2     4 1   
     5     2    12 ar  
     6     3     4 1   
     7     3     5 1   
     8     3    24 1   
     9     3    25 1   
    10     4     6 1   
    11     5    15 1   
    12     5    16 1   
    13     5    17 1   
    14     6     7 ar  
    15     6    11 ar  
    16     7     8 ar  
    17     7    12 1   
    18     8     9 ar  
    19     8    26 1   
    20     9    10 ar  
    21     9    27 1   
    22    10    11 ar  
    23    10    14 1   
    24    11    28 1   
    25    12    13 ar  
    26    13    19 ar  
    27    13    29 1   
    28    18    19 ar  
    29    18    30 1   
    30    19    20 1   
    31    20    21 1   
    32    20    31 1   
    33    20    32 1   
    34    21    22 1   
    35    21    33 1   
    36    22    34 1   
    37    22    35 1   
    38    22    36 1   
@<TRIPOS>SUBSTRUCTURE
     1 LEB         1 TEMP              0 ****  ****    0 ROOT
