@<TRIPOS>MOLECULE
LEC
   42    43     1     0     0
SMALL
No Charge or Current Charge


@<TRIPOS>ATOM
      1 C8          -2.2650     4.5240     0.7700 c3         1 LEC      -0.181100
      2 C7          -2.1050     3.2840    -0.0990 c          1 LEC       0.614100
      3 O7          -1.7110     3.3370    -1.2540 o          1 LEC      -0.584100
      4 N2          -2.4500     2.1030     0.5140 ns         1 LEC      -0.501900
      5 C2          -2.3660     0.7520    -0.1000 c6         1 LEC       0.088700
      6 C3          -3.4510    -0.1980     0.4930 c6         1 LEC       0.162300
      7 O3          -4.7730     0.3230     0.2910 oh         1 LEC      -0.639000
      8 C4          -3.3540    -1.6240    -0.1290 c6         1 LEC       0.098300
      9 O4          -4.3460    -2.4860     0.4770 oh         1 LEC      -0.722000
     10 C5          -1.9020    -2.1630     0.0660 c6         1 LEC       0.150300
     11 C6          -1.6670    -3.5580    -0.6050 c3         1 LEC       0.170600
     12 O6          -0.3110    -4.0310    -0.4710 oh         1 LEC      -0.707000
     13 O5          -0.9630    -1.2210    -0.5090 os         1 LEC      -0.456000
     14 C1          -0.9740     0.0790     0.1160 c6         1 LEC       0.378300
     15 O1           0.0730     0.8800    -0.4610 os         1 LEC      -0.309100
     16 C14          1.4070     0.5950    -0.2430 ca         1 LEC       0.190100
     17 C9           2.3520     1.4240    -0.8640 ca         1 LEC      -0.177000
     18 C10          3.7280     1.2070    -0.6850 ca         1 LEC      -0.011500
     19 C11          4.1790     0.1430     0.1300 ca         1 LEC      -0.222200
     20 N1           5.6440    -0.0960     0.3250 no         1 LEC       0.701200
     21 O2           6.4410     0.6600    -0.2450 o          1 LEC      -0.406500
     22 O8           5.9920    -1.0380     1.0490 o          1 LEC      -0.406500
     23 C12          3.2260    -0.6930     0.7580 ca         1 LEC      -0.011500
     24 C13          1.8510    -0.4670     0.5740 ca         1 LEC      -0.177000
     25 H8          -1.9870     5.4450     0.2450 hc         1 LEC       0.062367
     26 H8A         -3.2930     4.5660     1.1460 hc         1 LEC       0.062367
     27 H8B         -1.6850     4.3910     1.6900 hc         1 LEC       0.062367
     28 HN2         -2.8040     2.1770     1.4610 hn         1 LEC       0.309500
     29 H2          -2.5340     0.8430    -1.1830 h1         1 LEC       0.123700
     30 H3          -3.2620    -0.2900     1.5730 h1         1 LEC       0.037700
     31 HO3         -5.3690    -0.4400     0.4700 ho         1 LEC       0.460000
     32 H4          -3.5420    -1.5370    -1.2110 h1         1 LEC       0.065700
     33 HO4         -4.5510    -3.2100    -0.1620 ho         1 LEC       0.516000
     34 H5          -1.6900    -2.2640     1.1410 h1         1 LEC       0.060700
     35 H6          -2.3570    -4.2810    -0.1510 h1         1 LEC       0.030700
     36 H6A         -1.9320    -3.4750    -1.6680 h1         1 LEC       0.030700
     37 HO6         -0.2450    -4.8650    -0.9920 ho         1 LEC       0.510000
     38 H1          -0.7940    -0.0250     1.1970 h2         1 LEC       0.033700
     39 H7           2.0120     2.2450    -1.4900 ha         1 LEC       0.145500
     40 H9           4.4360     1.8700    -1.1820 ha         1 LEC       0.151000
     41 H10          3.5420    -1.5220     1.3910 ha         1 LEC       0.151000
     42 H11          1.1490    -1.1320     1.0690 ha         1 LEC       0.145500
@<TRIPOS>BOND
     1     1     2 1   
     2     1    25 1   
     3     1    26 1   
     4     1    27 1   
     5     2     3 2   
     6     2     4 1   
     7     4     5 1   
     8     4    28 1   
     9     5     6 1   
    10     5    14 1   
    11     5    29 1   
    12     6     7 1   
    13     6     8 1   
    14     6    30 1   
    15     7    31 1   
    16     8     9 1   
    17     8    10 1   
    18     8    32 1   
    19     9    33 1   
    20    10    11 1   
    21    10    13 1   
    22    10    34 1   
    23    11    12 1   
    24    11    35 1   
    25    11    36 1   
    26    12    37 1   
    27    13    14 1   
    28    14    15 1   
    29    14    38 1   
    30    15    16 1   
    31    16    17 ar  
    32    16    24 ar  
    33    17    18 ar  
    34    17    39 1   
    35    18    19 ar  
    36    18    40 1   
    37    19    20 1   
    38    19    23 ar  
    39    20    21 1   
    40    20    22 1   
    41    23    24 ar  
    42    23    41 1   
    43    24    42 1   
@<TRIPOS>SUBSTRUCTURE
     1 LEC         1 TEMP              0 ****  ****    0 ROOT
