@<TRIPOS>MOLECULE
LEC
   42    43     1     0     0
SMALL
abcg2


@<TRIPOS>ATOM
      1 C8          -2.1350     4.3560     0.7500 c3         1 LEC      -0.181100
      2 C7          -2.1590     3.1450    -0.1490 c          1 LEC       0.614100
      3 O7          -2.1360     3.2230    -1.3670 o          1 LEC      -0.584100
      4 N2          -2.2180     1.9700     0.5140 ns         1 LEC      -0.501900
      5 C2          -2.2520     0.6830    -0.1220 c6         1 LEC       0.088700
      6 C3          -3.3690    -0.1860     0.4490 c6         1 LEC       0.162300
      7 O3          -4.5880     0.4500     0.1790 oh         1 LEC      -0.639000
      8 C4          -3.3140    -1.5920    -0.1470 c6         1 LEC       0.098300
      9 O4          -4.2910    -2.3590     0.5180 oh         1 LEC      -0.722000
     10 C5          -1.9100    -2.1770     0.0360 c6         1 LEC       0.150300
     11 C6          -1.7510    -3.5330    -0.6120 c3         1 LEC       0.170600
     12 O6          -0.4670    -4.0240    -0.3160 oh         1 LEC      -0.707000
     13 O5          -0.9690    -1.3020    -0.5610 os         1 LEC      -0.456000
     14 C1          -0.9230    -0.0530     0.0510 c6         1 LEC       0.378300
     15 O1           0.0610     0.7000    -0.5880 os         1 LEC      -0.309100
     16 C14          1.3580     0.4890    -0.3050 ca         1 LEC       0.190100
     17 C9           2.2420     1.4610    -0.7790 ca         1 LEC      -0.177000
     18 C10          3.5940     1.3490    -0.5400 ca         1 LEC      -0.011500
     19 C11          4.0680     0.2600     0.1830 ca         1 LEC      -0.222200
     20 N1           5.4850     0.1390     0.4450 no         1 LEC       0.701200
     21 O2           6.2200     1.0000     0.0160 o          1 LEC      -0.406500
     22 O8           5.8710    -0.8150     1.0810 o          1 LEC      -0.406500
     23 C12          3.2010    -0.7150     0.6530 ca         1 LEC      -0.011500
     24 C13          1.8450    -0.6090     0.4050 ca         1 LEC      -0.177000
     25 H8          -2.0860     5.2660     0.1580 hc         1 LEC       0.062367
     26 H8A         -3.0290     4.3920     1.3740 hc         1 LEC       0.062367
     27 H8B         -1.2720     4.3260     1.4170 hc         1 LEC       0.062367
     28 HN2         -2.2510     1.9940     1.5220 hn         1 LEC       0.309500
     29 H2          -2.4240     0.8310    -1.1910 h1         1 LEC       0.123700
     30 H3          -3.2110    -0.2850     1.5370 h1         1 LEC       0.037700
     31 HO3         -5.2920    -0.0880     0.5580 ho         1 LEC       0.460000
     32 H4          -3.5280    -1.5200    -1.2230 h1         1 LEC       0.065700
     33 HO4         -4.6510    -3.0120    -0.0890 ho         1 LEC       0.516000
     34 H5          -1.7050    -2.2750     1.1150 h1         1 LEC       0.060700
     35 H6          -2.5350    -4.1930    -0.2230 h1         1 LEC       0.030700
     36 H6A         -1.9180    -3.4340    -1.6930 h1         1 LEC       0.030700
     37 HO6         -0.4070    -4.9230    -0.6520 ho         1 LEC       0.510000
     38 H1          -0.6870    -0.1550     1.1250 h2         1 LEC       0.033700
     39 H7           1.8580     2.3080    -1.3310 ha         1 LEC       0.145500
     40 H9           4.2630     2.1120    -0.9100 ha         1 LEC       0.151000
     41 H10          3.5670    -1.5690     1.2040 ha         1 LEC       0.151000
     42 H11          1.1960    -1.4000     0.7520 ha         1 LEC       0.145500
@<TRIPOS>BOND
     1     1     2 1   
     2     1    25 1   
     3     1    26 1   
     4     1    27 1   
     5     2     3 2   
     6     2     4 1   
     7     4     5 1   
     8     4    28 1   
     9     5     6 1   
    10     5    14 1   
    11     5    29 1   
    12     6     7 1   
    13     6     8 1   
    14     6    30 1   
    15     7    31 1   
    16     8     9 1   
    17     8    10 1   
    18     8    32 1   
    19     9    33 1   
    20    10    11 1   
    21    10    13 1   
    22    10    34 1   
    23    11    12 1   
    24    11    35 1   
    25    11    36 1   
    26    12    37 1   
    27    13    14 1   
    28    14    15 1   
    29    14    38 1   
    30    15    16 1   
    31    16    17 ar  
    32    16    24 ar  
    33    17    18 ar  
    34    17    39 1   
    35    18    19 ar  
    36    18    40 1   
    37    19    20 1   
    38    19    23 ar  
    39    20    21 1   
    40    20    22 1   
    41    23    24 ar  
    42    23    41 1   
    43    24    42 1   
@<TRIPOS>SUBSTRUCTURE
     1 LEC         1 TEMP              0 ****  ****    0 ROOT
