@<TRIPOS>MOLECULE
LEE
   53    52     1     0     0
SMALL
bcc


@<TRIPOS>ATOM
      1 N           -5.4040     2.4390     1.6310 n8         1 LEE      -0.888800
      2 CA          -4.7790     2.8440     0.3810 c3         1 LEE       0.012500
      3 C           -5.7500     3.3640    -0.7080 c          1 LEE       0.904600
      4 O           -6.9660     3.1370    -0.5540 o          1 LEE      -0.845300
      5 CB          -3.9690     1.6800    -0.1960 c3         1 LEE      -0.043400
      6 CG          -2.8790     1.1920     0.7490 c3         1 LEE      -0.148400
      7 CD          -2.1270     0.0010     0.2070 c          1 LEE       0.667100
      8 OE1         -2.6640    -0.8910    -0.4370 o          1 LEE      -0.601100
      9 OXT         -5.2210     3.9530    -1.6750 o          1 LEE      -0.845300
     10 N1          -0.8100    -0.0320     0.4830 ns         1 LEE      -0.571900
     11 CA1          0.0080    -1.1450     0.0820 c3         1 LEE       0.047700
     12 CB1          1.4600    -0.9000     0.4730 c3         1 LEE       0.012700
     13 SG           2.0690     0.6320    -0.2910 ss         1 LEE      -0.346200
     14 C1           3.8060     0.5550     0.2320 c3         1 LEE       0.008700
     15 C2           4.5240     1.8370    -0.1590 c3         1 LEE      -0.064400
     16 C3           6.0030     1.7920     0.2070 c3         1 LEE      -0.075400
     17 C4           6.7350     3.0850    -0.1310 c3         1 LEE      -0.076400
     18 C5           8.2190     3.0390     0.2110 c3         1 LEE      -0.075400
     19 C6           8.9410     4.3380    -0.1190 c3         1 LEE      -0.087100
     20 C7          -0.4620    -2.4420     0.7550 c          1 LEE       0.651100
     21 O1          -0.8720    -2.4480     1.9070 o          1 LEE      -0.647100
     22 N2          -0.3210    -3.5310     0.0050 ns         1 LEE      -0.523900
     23 CA2         -0.6400    -4.8650     0.4430 c3         1 LEE      -0.054000
     24 C8          -0.3920    -5.8880    -0.6850 c          1 LEE       0.924600
     25 O2           0.0110    -5.4420    -1.7770 o          1 LEE      -0.840300
     26 OXT1        -0.6250    -7.0710    -0.3870 o          1 LEE      -0.840300
     27 H           -5.8090     3.2560     2.0730 hn         1 LEE       0.323800
     28 H2          -6.2030     1.8580     1.4000 hn         1 LEE       0.323800
     29 HA          -4.0770     3.6540     0.6090 h1         1 LEE       0.029700
     30 HB2         -4.6460     0.8530    -0.4300 hc         1 LEE       0.055200
     31 HB3         -3.5220     1.9960    -1.1410 hc         1 LEE       0.055200
     32 HG2         -2.1860     2.0070     0.9760 hc         1 LEE       0.052700
     33 HG3         -3.3300     0.9010     1.7020 hc         1 LEE       0.052700
     34 H1          -0.4080     0.6890     1.0610 hn         1 LEE       0.314500
     35 HA1         -0.0450    -1.2630    -1.0050 h1         1 LEE       0.081700
     36 HB21         1.5590    -0.8310     1.5590 h1         1 LEE       0.068700
     37 HB31         2.0670    -1.7380     0.1300 h1         1 LEE       0.068700
     38 H11          3.8440     0.4130     1.3140 h1         1 LEE       0.053200
     39 H12          4.2800    -0.3100    -0.2370 h1         1 LEE       0.053200
     40 H21          4.4210     2.0060    -1.2350 hc         1 LEE       0.051700
     41 H22          4.0470     2.6870     0.3380 hc         1 LEE       0.051700
     42 H31          6.1070     1.5840     1.2770 hc         1 LEE       0.035700
     43 H32          6.4810     0.9560    -0.3140 hc         1 LEE       0.035700
     44 H41          6.6160     3.3030    -1.1980 hc         1 LEE       0.038200
     45 H42          6.2650     3.9180     0.4030 hc         1 LEE       0.038200
     46 H51          8.3380     2.8120     1.2750 hc         1 LEE       0.034700
     47 H52          8.6880     2.2100    -0.3290 hc         1 LEE       0.034700
     48 H61          8.8730     4.5680    -1.1840 hc         1 LEE       0.027700
     49 H62          8.5080     5.1780     0.4270 hc         1 LEE       0.027700
     50 H63         10.0000     4.2860     0.1400 hc         1 LEE       0.027700
     51 H3          -0.0230    -3.4630    -0.9590 hn         1 LEE       0.341500
     52 HA2         -0.0410    -5.1440     1.3140 h1         1 LEE       0.034200
     53 HA3         -1.6880    -4.9300     0.7540 h1         1 LEE       0.034200
@<TRIPOS>BOND
     1     1     2 1   
     2     1    27 1   
     3     1    28 1   
     4     2     3 1   
     5     2     5 1   
     6     2    29 1   
     7     3     4 1   
     8     3     9 1   
     9     5     6 1   
    10     5    30 1   
    11     5    31 1   
    12     6     7 1   
    13     6    32 1   
    14     6    33 1   
    15     7     8 2   
    16     7    10 1   
    17    10    11 1   
    18    10    34 1   
    19    11    12 1   
    20    11    20 1   
    21    11    35 1   
    22    12    13 1   
    23    12    36 1   
    24    12    37 1   
    25    13    14 1   
    26    14    15 1   
    27    14    38 1   
    28    14    39 1   
    29    15    16 1   
    30    15    40 1   
    31    15    41 1   
    32    16    17 1   
    33    16    42 1   
    34    16    43 1   
    35    17    18 1   
    36    17    44 1   
    37    17    45 1   
    38    18    19 1   
    39    18    46 1   
    40    18    47 1   
    41    19    48 1   
    42    19    49 1   
    43    19    50 1   
    44    20    21 2   
    45    20    22 1   
    46    22    23 1   
    47    22    51 1   
    48    23    24 1   
    49    23    52 1   
    50    23    53 1   
    51    24    25 1   
    52    24    26 1   
@<TRIPOS>SUBSTRUCTURE
     1 LEE         1 TEMP              0 ****  ****    0 ROOT
