@<TRIPOS>MOLECULE
LEE
   53    52     1     0     0
SMALL
No Charge or Current Charge


@<TRIPOS>ATOM
      1 N           -4.7710     3.4780     0.2990 n8         1 LEE      -0.888800
      2 CA          -3.3990     3.3880     0.9290 c3         1 LEE       0.012500
      3 C           -2.5820     4.7480     1.0670 c          1 LEE       0.904600
      4 O           -2.4380     5.4540     0.0730 o          1 LEE      -0.845300
      5 CB          -2.5370     2.3120     0.2130 c3         1 LEE      -0.043400
      6 CG          -3.1080     0.8720     0.3000 c3         1 LEE      -0.148400
      7 CD          -2.1580    -0.1400    -0.3460 c          1 LEE       0.667100
      8 OE1         -2.0360    -0.2490    -1.5570 o          1 LEE      -0.601100
      9 OXT         -2.2210     5.1080     2.1820 o          1 LEE      -0.845300
     10 N1          -1.4860    -0.9530     0.5400 ns         1 LEE      -0.571900
     11 CA1         -0.4660    -1.9690     0.1690 c3         1 LEE       0.047700
     12 CB1          0.9630    -1.4460     0.4620 c3         1 LEE       0.012700
     13 SG           1.3600     0.0880    -0.4970 ss         1 LEE      -0.346200
     14 C1           3.0560     0.4320     0.1440 c3         1 LEE       0.008700
     15 C2           3.6320     1.7020    -0.5100 c3         1 LEE      -0.064400
     16 C3           5.0530     2.0410    -0.0110 c3         1 LEE      -0.075400
     17 C4           5.6370     3.3130    -0.6650 c3         1 LEE      -0.076400
     18 C5           7.0580     3.6510    -0.1660 c3         1 LEE      -0.075400
     19 C6           7.6410     4.9200    -0.8180 c3         1 LEE      -0.087100
     20 C7          -0.7160    -3.3180     0.9100 c          1 LEE       0.651100
     21 O1          -1.4670    -3.4300     1.8740 o          1 LEE      -0.647100
     22 N2          -0.0330    -4.4040     0.4050 ns         1 LEE      -0.523900
     23 CA2         -0.1100    -5.7890     0.9450 c3         1 LEE      -0.054000
     24 C8           0.7790    -6.8180     0.1730 c          1 LEE       0.924600
     25 O2           1.4180    -6.4390    -0.8040 o          1 LEE      -0.840300
     26 OXT1         0.8100    -7.9760     0.5750 o          1 LEE      -0.840300
     27 H           -5.3450     4.1390     0.8350 hn         1 LEE       0.323800
     28 H2          -4.6790     3.9200    -0.6220 hn         1 LEE       0.323800
     29 HA          -3.5610     3.0330     1.9560 h1         1 LEE       0.029700
     30 HB2         -2.4030     2.5920    -0.8390 hc         1 LEE       0.055200
     31 HB3         -1.5360     2.3140     0.6640 hc         1 LEE       0.055200
     32 HG2         -3.2580     0.6230     1.3570 hc         1 LEE       0.052700
     33 HG3         -4.0660     0.8370    -0.2300 hc         1 LEE       0.052700
     34 H1          -1.6960    -0.8220     1.5230 hn         1 LEE       0.314500
     35 HA1         -0.5430    -2.1840    -0.9050 h1         1 LEE       0.081700
     36 HB21         1.0600    -1.2300     1.5340 h1         1 LEE       0.068700
     37 HB31         1.7020    -2.2170     0.2040 h1         1 LEE       0.068700
     38 H11          3.0070     0.5640     1.2330 h1         1 LEE       0.053200
     39 H12          3.7030    -0.4270    -0.0750 h1         1 LEE       0.053200
     40 H21          3.6520     1.5660    -1.5990 hc         1 LEE       0.051700
     41 H22          2.9630     2.5470    -0.3030 hc         1 LEE       0.051700
     42 H31          5.0300     2.1730     1.0780 hc         1 LEE       0.035700
     43 H32          5.7180     1.1930    -0.2170 hc         1 LEE       0.035700
     44 H41          5.6600     3.1800    -1.7540 hc         1 LEE       0.038200
     45 H42          4.9720     4.1610    -0.4590 hc         1 LEE       0.038200
     46 H51          7.0390     3.7870     0.9230 hc         1 LEE       0.034700
     47 H52          7.7270     2.8060    -0.3720 hc         1 LEE       0.034700
     48 H61          7.7060     4.8020    -1.9060 hc         1 LEE       0.027700
     49 H62          7.0120     5.7920    -0.6000 hc         1 LEE       0.027700
     50 H63          8.6480     5.1190    -0.4330 hc         1 LEE       0.027700
     51 H3           0.5620    -4.2430    -0.4030 hn         1 LEE       0.341500
     52 HA2          0.2090    -5.7800     1.9950 h1         1 LEE       0.034200
     53 HA3         -1.1510    -6.1320     0.8970 h1         1 LEE       0.034200
@<TRIPOS>BOND
     1     1     2 1   
     2     1    27 1   
     3     1    28 1   
     4     2     3 1   
     5     2     5 1   
     6     2    29 1   
     7     3     4 1   
     8     3     9 1   
     9     5     6 1   
    10     5    30 1   
    11     5    31 1   
    12     6     7 1   
    13     6    32 1   
    14     6    33 1   
    15     7     8 2   
    16     7    10 1   
    17    10    11 1   
    18    10    34 1   
    19    11    12 1   
    20    11    20 1   
    21    11    35 1   
    22    12    13 1   
    23    12    36 1   
    24    12    37 1   
    25    13    14 1   
    26    14    15 1   
    27    14    38 1   
    28    14    39 1   
    29    15    16 1   
    30    15    40 1   
    31    15    41 1   
    32    16    17 1   
    33    16    42 1   
    34    16    43 1   
    35    17    18 1   
    36    17    44 1   
    37    17    45 1   
    38    18    19 1   
    39    18    46 1   
    40    18    47 1   
    41    19    48 1   
    42    19    49 1   
    43    19    50 1   
    44    20    21 2   
    45    20    22 1   
    46    22    23 1   
    47    22    51 1   
    48    23    24 1   
    49    23    52 1   
    50    23    53 1   
    51    24    25 1   
    52    24    26 1   
@<TRIPOS>SUBSTRUCTURE
     1 LEE         1 TEMP              0 ****  ****    0 ROOT
