@<TRIPOS>MOLECULE
LEF
   21    20     1     0     0
SMALL
No Charge or Current Charge


@<TRIPOS>ATOM
      1 CD1         25.7820    26.0800    17.2680 c3         1 LEF       0.168900
      2 CD2         24.2460    25.2900    19.1310 c3         1 LEF      -0.084100
      3 CG          25.6330    25.8980    18.8000 c3         1 LEF      -0.096700
      4 CB          26.8130    25.0660    19.3960 c3         1 LEF      -0.043400
      5 N           26.9030    26.2500    21.6210 n8         1 LEF      -0.894800
      6 CA          26.8330    24.9000    20.9470 c3         1 LEF       0.022500
      7 C           27.9080    23.8100    21.4120 c          1 LEF       0.929600
      8 O           27.6570    23.1340    22.4060 o          1 LEF      -0.836300
      9 F1          26.9090    26.7720    16.9740 f          1 LEF      -0.260300
     10 OXT         28.9500    23.6690    20.7760 o          1 LEF      -0.836300
     11 HD12        25.8280    25.1030    16.7690 h1         1 LEF       0.023200
     12 HD13        24.9250    26.6380    16.8690 h1         1 LEF       0.023200
     13 HD21        24.1770    24.2560    18.7730 hc         1 LEF       0.024367
     14 HD22        24.0550    25.2980    20.2100 hc         1 LEF       0.024367
     15 HD23        23.4470    25.8700    18.6540 hc         1 LEF       0.024367
     16 HG          25.6620    26.9020    19.2390 hc         1 LEF       0.059700
     17 HB3         27.7630    25.5180    19.0870 hc         1 LEF       0.052700
     18 HB2         26.7910    24.0670    18.9420 hc         1 LEF       0.052700
     19 HA          25.8610    24.4820    21.2360 h1         1 LEF      -0.006300
     20 H           26.1050    26.8170    21.3180 hn         1 LEF       0.325800
     21 H2          26.7640    26.1280    22.6310 hn         1 LEF       0.325800
@<TRIPOS>BOND
     1     1     3 1   
     2     1     9 1   
     3     1    11 1   
     4     1    12 1   
     5     2     3 1   
     6     2    13 1   
     7     2    14 1   
     8     2    15 1   
     9     3     4 1   
    10     3    16 1   
    11     4     6 1   
    12     4    17 1   
    13     4    18 1   
    14     5     6 1   
    15     5    20 1   
    16     5    21 1   
    17     6     7 1   
    18     6    19 1   
    19     7     8 1   
    20     7    10 1   
@<TRIPOS>SUBSTRUCTURE
     1 LEF         1 TEMP              0 ****  ****    0 ROOT
