@<TRIPOS>MOLECULE
LEF
   21    20     1     0     0
SMALL
bcc


@<TRIPOS>ATOM
      1 CD1         25.8510    26.1770    17.3430 c3         1 LEF       0.168900
      2 CD2         24.2880    25.2390    18.9910 c3         1 LEF      -0.084100
      3 CG          25.6510    25.9090    18.8210 c3         1 LEF      -0.096700
      4 CB          26.7860    25.0620    19.4020 c3         1 LEF      -0.043400
      5 N           26.7690    26.1580    21.5940 n8         1 LEF      -0.894800
      6 CA          26.7190    24.8680    20.9160 c3         1 LEF       0.022500
      7 C           27.8430    23.9300    21.4330 c          1 LEF       0.929600
      8 O           28.3730    24.2310    22.5220 o          1 LEF      -0.836300
      9 F1          27.0190    26.9050    17.1060 f          1 LEF      -0.260300
     10 OXT         28.0910    22.9230    20.7410 o          1 LEF      -0.836300
     11 HD12        25.9250    25.2380    16.7860 h1         1 LEF       0.023200
     12 HD13        25.0180    26.7560    16.9380 h1         1 LEF       0.023200
     13 HD21        24.2710    24.2600    18.5070 hc         1 LEF       0.024367
     14 HD22        24.0440    25.0900    20.0410 hc         1 LEF       0.024367
     15 HD23        23.4900    25.8420    18.5550 hc         1 LEF       0.024367
     16 HG          25.6240    26.8790    19.3300 hc         1 LEF       0.059700
     17 HB3         27.7470    25.5270    19.1600 hc         1 LEF       0.052700
     18 HB2         26.7750    24.0850    18.9130 hc         1 LEF       0.052700
     19 HA          25.7850    24.3270    21.1460 h1         1 LEF      -0.006300
     20 H           25.8390    26.5470    21.6770 hn         1 LEF       0.325800
     21 H2          27.1030    25.9950    22.5350 hn         1 LEF       0.325800
@<TRIPOS>BOND
     1     1     3 1   
     2     1     9 1   
     3     1    11 1   
     4     1    12 1   
     5     2     3 1   
     6     2    13 1   
     7     2    14 1   
     8     2    15 1   
     9     3     4 1   
    10     3    16 1   
    11     4     6 1   
    12     4    17 1   
    13     4    18 1   
    14     5     6 1   
    15     5    20 1   
    16     5    21 1   
    17     6     7 1   
    18     6    19 1   
    19     7     8 1   
    20     7    10 1   
@<TRIPOS>SUBSTRUCTURE
     1 LEF         1 TEMP              0 ****  ****    0 ROOT
