@<TRIPOS>MOLECULE
LEG
   36    36     1     0     0
SMALL
bcc


@<TRIPOS>ATOM
      1 C27         -7.1700    -0.7610     1.2830 c3         1 LEG      -0.088100
      2 C24         -6.2470    -0.1240     0.2540 c3         1 LEG      -0.075400
      3 C21         -4.7740    -0.4070     0.5240 c3         1 LEG      -0.075400
      4 C18         -3.8440     0.2090    -0.5130 c3         1 LEG      -0.075400
      5 C15         -2.3700    -0.0150    -0.2010 c3         1 LEG      -0.073400
      6 C14         -1.4460     0.5950    -1.2580 c3         1 LEG      -0.037100
      7 C1          -0.0020     0.4720    -0.8720 ca         1 LEG      -0.048300
      8 C6           0.6240     1.4790    -0.1370 ca         1 LEG      -0.142500
      9 C5           1.9410     1.3550     0.2640 ca         1 LEG      -0.079000
     10 C2           0.7360    -0.6650    -1.1900 ca         1 LEG      -0.142500
     11 C3           2.0540    -0.8000    -0.7810 ca         1 LEG      -0.079000
     12 C4           2.6780     0.2090    -0.0460 ca         1 LEG      -0.170600
     13 C11          4.0920     0.1310     0.4030 c          1 LEG       0.581900
     14 O13          4.6430     1.1100     0.8730 o          1 LEG      -0.533100
     15 C12          4.8150    -1.1600     0.2820 ce         1 LEG      -0.258200
     16 C33          6.1140    -1.2580     0.5580 c2         1 LEG      -0.134000
     17 H271        -6.9460    -0.4030     2.2900 hc         1 LEG       0.031700
     18 H272        -8.2170    -0.5350     1.0790 hc         1 LEG       0.031700
     19 H273        -7.0620    -1.8470     1.2900 hc         1 LEG       0.031700
     20 H241        -6.5090    -0.4860    -0.7450 hc         1 LEG       0.036700
     21 H242        -6.4070     0.9590     0.2340 hc         1 LEG       0.036700
     22 H211        -4.5110    -0.0280     1.5180 hc         1 LEG       0.038200
     23 H212        -4.6130    -1.4900     0.5610 hc         1 LEG       0.038200
     24 H181        -4.0770    -0.2030    -1.5010 hc         1 LEG       0.037700
     25 H182        -4.0360     1.2860    -0.5810 hc         1 LEG       0.037700
     26 H151        -2.1340     0.4180     0.7750 hc         1 LEG       0.043200
     27 H152        -2.1670    -1.0880    -0.1170 hc         1 LEG       0.043200
     28 H141        -1.6210     0.1030    -2.2190 hc         1 LEG       0.049200
     29 H142        -1.7010     1.6490    -1.3930 hc         1 LEG       0.049200
     30 H2           0.2750    -1.4590    -1.7660 ha         1 LEG       0.133000
     31 H3           2.5850    -1.6990    -1.0630 ha         1 LEG       0.141000
     32 H5           2.4030     2.1540     0.8280 ha         1 LEG       0.141000
     33 H6           0.0720     2.3740     0.1210 ha         1 LEG       0.133000
     34 H12          4.2740    -2.0430    -0.0270 ha         1 LEG       0.131000
     35 H331         6.7010    -0.4040     0.8700 ha         1 LEG       0.123500
     36 H332         6.6300    -2.2040     0.4760 ha         1 LEG       0.123500
@<TRIPOS>BOND
     1     1     2 1   
     2     1    17 1   
     3     1    18 1   
     4     1    19 1   
     5     2     3 1   
     6     2    20 1   
     7     2    21 1   
     8     3     4 1   
     9     3    22 1   
    10     3    23 1   
    11     4     5 1   
    12     4    24 1   
    13     4    25 1   
    14     5     6 1   
    15     5    26 1   
    16     5    27 1   
    17     6     7 1   
    18     6    28 1   
    19     6    29 1   
    20     7     8 ar  
    21     7    10 ar  
    22     8     9 ar  
    23     8    33 1   
    24     9    12 ar  
    25     9    32 1   
    26    10    11 ar  
    27    10    30 1   
    28    11    12 ar  
    29    11    31 1   
    30    12    13 1   
    31    13    14 2   
    32    13    15 1   
    33    15    16 2   
    34    15    34 1   
    35    16    35 1   
    36    16    36 1   
@<TRIPOS>SUBSTRUCTURE
     1 LEG         1 TEMP              0 ****  ****    0 ROOT
