@<TRIPOS>MOLECULE
LEG
   36    36     1     0     0
SMALL
No Charge or Current Charge


@<TRIPOS>ATOM
      1 C27         -7.2940    -0.8050     1.1950 c3         1 LEG      -0.088100
      2 C24         -6.3300    -0.2350     0.1370 c3         1 LEG      -0.075400
      3 C21         -4.8440    -0.3640     0.5400 c3         1 LEG      -0.075400
      4 C18         -3.8780     0.2080    -0.5210 c3         1 LEG      -0.075400
      5 C15         -2.3930     0.0780    -0.1180 c3         1 LEG      -0.073400
      6 C14         -1.4250     0.6490    -1.1760 c3         1 LEG      -0.037100
      7 C1           0.0310     0.5090    -0.7530 ca         1 LEG      -0.048300
      8 C6           0.6620     1.5300    -0.0230 ca         1 LEG      -0.124500
      9 C5           2.0050     1.4000     0.3710 ca         1 LEG      -0.061000
     10 C2           0.7600    -0.6460    -1.0870 ca         1 LEG      -0.124500
     11 C3           2.1040    -0.7820    -0.6950 ca         1 LEG      -0.061000
     12 C4           2.7430     0.2390     0.0480 ca         1 LEG      -0.170600
     13 C11          4.1900     0.1270     0.4840 c          1 LEG       0.581900
     14 O13          4.8240     1.1300     0.7910 o          1 LEG      -0.533100
     15 C12          4.8810    -1.2010     0.4220 ce         1 LEG      -0.308200
     16 C33          6.2130    -1.3600     0.2200 c2         1 LEG      -0.234000
     17 H271        -7.1760    -0.2790     2.1510 hc         1 LEG       0.031700
     18 H272        -8.3330    -0.6910     0.8660 hc         1 LEG       0.031700
     19 H273        -7.1010    -1.8720     1.3610 hc         1 LEG       0.031700
     20 H241        -6.4960    -0.7560    -0.8140 hc         1 LEG       0.036700
     21 H242        -6.5700     0.8220    -0.0310 hc         1 LEG       0.036700
     22 H211        -4.6830     0.1560     1.4920 hc         1 LEG       0.038200
     23 H212        -4.6080    -1.4220     0.7090 hc         1 LEG       0.038200
     24 H181        -4.0400    -0.3130    -1.4730 hc         1 LEG       0.037700
     25 H182        -4.1150     1.2660    -0.6900 hc         1 LEG       0.037700
     26 H151        -2.2300     0.5980     0.8340 hc         1 LEG       0.043200
     27 H152        -2.1550    -0.9790     0.0510 hc         1 LEG       0.043200
     28 H141        -1.5900     0.1350    -2.1310 hc         1 LEG       0.049200
     29 H142        -1.6650     1.7050    -1.3520 hc         1 LEG       0.049200
     30 H2           0.2860    -1.4420    -1.6560 ha         1 LEG       0.115000
     31 H3           2.6380    -1.6800    -0.9920 ha         1 LEG       0.123000
     32 H5           2.4680     2.2050     0.9370 ha         1 LEG       0.123000
     33 H6           0.1110     2.4290     0.2430 ha         1 LEG       0.115000
     34 H12          4.2350    -2.0760     0.4620 ha         1 LEG       0.181000
     35 H331         6.8910    -0.5090     0.1300 ha         1 LEG       0.173500
     36 H332         6.6670    -2.3500     0.1390 ha         1 LEG       0.173500
@<TRIPOS>BOND
     1     1     2 1   
     2     1    17 1   
     3     1    18 1   
     4     1    19 1   
     5     2     3 1   
     6     2    20 1   
     7     2    21 1   
     8     3     4 1   
     9     3    22 1   
    10     3    23 1   
    11     4     5 1   
    12     4    24 1   
    13     4    25 1   
    14     5     6 1   
    15     5    26 1   
    16     5    27 1   
    17     6     7 1   
    18     6    28 1   
    19     6    29 1   
    20     7     8 ar  
    21     7    10 ar  
    22     8     9 ar  
    23     8    33 1   
    24     9    12 ar  
    25     9    32 1   
    26    10    11 ar  
    27    10    30 1   
    28    11    12 ar  
    29    11    31 1   
    30    12    13 1   
    31    13    14 2   
    32    13    15 1   
    33    15    16 2   
    34    15    34 1   
    35    16    35 1   
    36    16    36 1   
@<TRIPOS>SUBSTRUCTURE
     1 LEG         1 TEMP              0 ****  ****    0 ROOT
