@<TRIPOS>MOLECULE
LEH
   63    63     1     0     0
SMALL
abcg2


@<TRIPOS>ATOM
      1 O3           4.9820     1.6450     0.7580 o          1 LEH      -0.626100
      2 C7           4.9810     0.8060    -0.1370 c          1 LEH       0.601100
      3 N1           6.0570     0.0640    -0.4330 ns         1 LEH      -0.455900
      4 C6           7.3610     0.3440     0.1190 c3         1 LEH      -0.040300
      5 C5           8.2970    -0.8380    -0.1320 c3         1 LEH      -0.071400
      6 C4           7.8350    -2.1840     0.4320 c3         1 LEH      -0.063700
      7 C3           8.8470    -3.2670     0.0680 c3         1 LEH      -0.082600
      8 C2           7.6260    -2.1320     1.9410 c3         1 LEH      -0.082600
      9 C1           7.9860     1.6450    -0.4490 c          1 LEH       0.716000
     10 O2           8.9770     2.0690     0.1800 o          1 LEH      -0.725000
     11 O1           7.4790     2.1340    -1.4720 o          1 LEH      -0.725000
     12 C8           3.7450     0.5360    -0.9680 c3         1 LEH      -0.160400
     13 C9           2.4730     0.4800    -0.1290 c3         1 LEH      -0.067400
     14 C10          1.2180     0.3140    -0.9750 c3         1 LEH      -0.075400
     15 C11         -0.0510     0.2540    -0.1340 c3         1 LEH      -0.075400
     16 C12         -1.3230     0.1200    -0.9620 c3         1 LEH      -0.074400
     17 C13         -2.5850     0.0670    -0.1090 c3         1 LEH      -0.075400
     18 C14         -3.8660    -0.0530    -0.9250 c3         1 LEH      -0.074400
     19 C15         -5.1190    -0.0930    -0.0590 c3         1 LEH      -0.075400
     20 C16         -6.4070    -0.2080    -0.8650 c3         1 LEH      -0.073400
     21 C17         -7.6470    -0.2310     0.0200 c3         1 LEH      -0.098400
     22 C18         -8.9260    -0.3440    -0.7970 c3         1 LEH       0.071600
     23 N2         -10.1150    -0.3440     0.0340 na         1 LEH      -0.165500
     24 C20        -10.5700    -1.3770     0.8040 cc         1 LEH      -0.234000
     25 C21        -11.6570    -0.8870     1.4710 cd         1 LEH       0.224900
     26 N3         -11.8710     0.4190     1.1310 nd         1 LEH      -0.676000
     27 C19        -10.9260     0.7080     0.2710 cc         1 LEH       0.386400
     28 HN1          6.0110    -0.5220    -1.2510 hn         1 LEH       0.287500
     29 H6           7.2490     0.4780     1.1980 h1         1 LEH       0.062700
     30 H5           8.4570    -0.9420    -1.2120 hc         1 LEH       0.047200
     31 H5A          9.2700    -0.5900     0.2990 hc         1 LEH       0.047200
     32 H4           6.8800    -2.4510    -0.0340 hc         1 LEH       0.032700
     33 H3           8.5370    -4.2420     0.4460 hc         1 LEH       0.024033
     34 H3A          8.9680    -3.3530    -1.0140 hc         1 LEH       0.024033
     35 H3B          9.8280    -3.0430     0.4940 hc         1 LEH       0.024033
     36 H2           6.8450    -1.4260     2.2240 hc         1 LEH       0.024033
     37 H2A          7.3370    -3.1100     2.3290 hc         1 LEH       0.024033
     38 H2B          8.5440    -1.8320     2.4530 hc         1 LEH       0.024033
     39 H8           3.6620     1.3480    -1.6990 hc         1 LEH       0.047700
     40 H8A          3.8540    -0.3850    -1.5470 hc         1 LEH       0.047700
     41 H9           2.5440    -0.3480     0.5840 hc         1 LEH       0.048700
     42 H9A          2.3910     1.3920     0.4670 hc         1 LEH       0.048700
     43 H10          1.1450     1.1460    -1.6840 hc         1 LEH       0.032700
     44 H10A         1.2970    -0.5950    -1.5810 hc         1 LEH       0.032700
     45 H11          0.0180    -0.5870     0.5650 hc         1 LEH       0.037700
     46 H11A        -0.1170     1.1560     0.4850 hc         1 LEH       0.037700
     47 H12         -1.3930     0.9610    -1.6610 hc         1 LEH       0.035200
     48 H12A        -1.2630    -0.7830    -1.5810 hc         1 LEH       0.035200
     49 H13         -2.5160    -0.7770     0.5860 hc         1 LEH       0.037700
     50 H13A        -2.6360     0.9670     0.5140 hc         1 LEH       0.037700
     51 H14         -3.9340     0.7880    -1.6230 hc         1 LEH       0.036700
     52 H14A        -3.8210    -0.9570    -1.5440 hc         1 LEH       0.036700
     53 H15         -5.0500    -0.9350     0.6380 hc         1 LEH       0.040200
     54 H15A        -5.1590     0.8100     0.5600 hc         1 LEH       0.040200
     55 H16         -6.4740     0.6310    -1.5660 hc         1 LEH       0.039200
     56 H16A        -6.3750    -1.1160    -1.4760 hc         1 LEH       0.039200
     57 H17         -7.5840    -1.0700     0.7190 hc         1 LEH       0.054200
     58 H17A        -7.6870     0.6800     0.6250 hc         1 LEH       0.054200
     59 H18         -9.0110     0.4930    -1.4910 h1         1 LEH       0.058200
     60 H18A        -8.9220    -1.2560    -1.3950 h1         1 LEH       0.058200
     61 H20        -10.0980    -2.3450     0.8040 h4         1 LEH       0.155000
     62 H21        -12.2930    -1.4080     2.1700 h4         1 LEH       0.034100
     63 H19        -10.7820     1.6610    -0.2160 h5         1 LEH       0.051100
@<TRIPOS>BOND
     1     1     2 2   
     2     2     3 1   
     3     2    12 1   
     4     3     4 1   
     5     3    28 1   
     6     4     5 1   
     7     4     9 1   
     8     4    29 1   
     9     5     6 1   
    10     5    30 1   
    11     5    31 1   
    12     6     7 1   
    13     6     8 1   
    14     6    32 1   
    15     7    33 1   
    16     7    34 1   
    17     7    35 1   
    18     8    36 1   
    19     8    37 1   
    20     8    38 1   
    21     9    10 1   
    22     9    11 1   
    23    12    13 1   
    24    12    39 1   
    25    12    40 1   
    26    13    14 1   
    27    13    41 1   
    28    13    42 1   
    29    14    15 1   
    30    14    43 1   
    31    14    44 1   
    32    15    16 1   
    33    15    45 1   
    34    15    46 1   
    35    16    17 1   
    36    16    47 1   
    37    16    48 1   
    38    17    18 1   
    39    17    49 1   
    40    17    50 1   
    41    18    19 1   
    42    18    51 1   
    43    18    52 1   
    44    19    20 1   
    45    19    53 1   
    46    19    54 1   
    47    20    21 1   
    48    20    55 1   
    49    20    56 1   
    50    21    22 1   
    51    21    57 1   
    52    21    58 1   
    53    22    23 1   
    54    22    59 1   
    55    22    60 1   
    56    23    24 1   
    57    23    27 1   
    58    24    25 2   
    59    24    61 1   
    60    25    26 1   
    61    25    62 1   
    62    26    27 2   
    63    27    63 1   
@<TRIPOS>SUBSTRUCTURE
     1 LEH         1 TEMP              0 ****  ****    0 ROOT
