@<TRIPOS>MOLECULE
LEH
   63    63     1     0     0
SMALL
No Charge or Current Charge


@<TRIPOS>ATOM
      1 O3           5.7890     1.7880     0.5520 o          1 LEH      -0.626100
      2 C7           5.4270     1.2410    -0.4820 c          1 LEH       0.601100
      3 N1           6.2040     0.3230    -1.1560 ns         1 LEH      -0.455900
      4 C6           7.5130    -0.2070    -0.7000 c3         1 LEH      -0.040300
      5 C5           7.3720    -1.6310    -0.0920 c3         1 LEH      -0.071400
      6 C4           6.5240    -1.7370     1.2080 c3         1 LEH      -0.063700
      7 C3           6.2580    -3.2150     1.5730 c3         1 LEH      -0.082600
      8 C2           7.1650    -0.9900     2.4020 c3         1 LEH      -0.082600
      9 C1           8.5380    -0.1940    -1.8770 c          1 LEH       0.716000
     10 O2           9.5770     0.4340    -1.7310 o          1 LEH      -0.725000
     11 O1           8.2320    -0.7480    -2.9260 o          1 LEH      -0.725000
     12 C8           4.0850     1.5590    -1.1510 c3         1 LEH      -0.160400
     13 C9           2.9100     0.9020    -0.3900 c3         1 LEH      -0.067400
     14 C10          1.5370     1.1830    -1.0390 c3         1 LEH      -0.075400
     15 C11          0.3640     0.5260    -0.2790 c3         1 LEH      -0.075400
     16 C12         -1.0090     0.8070    -0.9270 c3         1 LEH      -0.074400
     17 C13         -2.1820     0.1490    -0.1680 c3         1 LEH      -0.075400
     18 C14         -3.5550     0.4290    -0.8160 c3         1 LEH      -0.074400
     19 C15         -4.7280    -0.2290    -0.0570 c3         1 LEH      -0.075400
     20 C16         -6.1010     0.0520    -0.7060 c3         1 LEH      -0.073400
     21 C17         -7.2730    -0.6070     0.0540 c3         1 LEH      -0.098400
     22 C18         -8.6430    -0.3260    -0.5960 c3         1 LEH       0.071600
     23 N2          -9.7570    -0.9550     0.1290 na         1 LEH      -0.165500
     24 C20        -10.2200    -2.2410    -0.0400 cc         1 LEH      -0.234000
     25 C21        -11.2570    -2.3780     0.8470 cd         1 LEH       0.224900
     26 N3         -11.4450    -1.2100     1.5580 nd         1 LEH      -0.676000
     27 C19        -10.5270    -0.3640     1.1100 cc         1 LEH       0.386400
     28 HN1          5.8250    -0.0380    -2.0230 hn         1 LEH       0.287500
     29 H6           7.9190     0.4660     0.0660 h1         1 LEH       0.062700
     30 H5           6.9380    -2.2880    -0.8560 hc         1 LEH       0.047200
     31 H5A          8.3760    -2.0240     0.1130 hc         1 LEH       0.047200
     32 H4           5.5460    -1.2790     1.0160 hc         1 LEH       0.032700
     33 H3           5.6220    -3.2860     2.4640 hc         1 LEH       0.024033
     34 H3A          5.7460    -3.7320     0.7530 hc         1 LEH       0.024033
     35 H3B          7.1970    -3.7420     1.7790 hc         1 LEH       0.024033
     36 H2           7.2710     0.0800     2.1940 hc         1 LEH       0.024033
     37 H2A          6.5430    -1.0920     3.2990 hc         1 LEH       0.024033
     38 H2B          8.1580    -1.3950     2.6280 hc         1 LEH       0.024033
     39 H8           3.9360     2.6450    -1.1500 hc         1 LEH       0.047700
     40 H8A          4.0810     1.1830    -2.1820 hc         1 LEH       0.047700
     41 H9           3.0720    -0.1830    -0.3450 hc         1 LEH       0.048700
     42 H9A          2.9010     1.2660     0.6450 hc         1 LEH       0.048700
     43 H10          1.3750     2.2680    -1.0830 hc         1 LEH       0.032700
     44 H10A         1.5450     0.8180    -2.0730 hc         1 LEH       0.032700
     45 H11          0.5260    -0.5580    -0.2340 hc         1 LEH       0.037700
     46 H11A         0.3550     0.8910     0.7560 hc         1 LEH       0.037700
     47 H12         -1.1720     1.8910    -0.9720 hc         1 LEH       0.035200
     48 H12A        -1.0000     0.4410    -1.9620 hc         1 LEH       0.035200
     49 H13         -2.0190    -0.9360    -0.1230 hc         1 LEH       0.037700
     50 H13A        -2.1910     0.5140     0.8670 hc         1 LEH       0.037700
     51 H14         -3.7180     1.5130    -0.8610 hc         1 LEH       0.036700
     52 H14A        -3.5460     0.0640    -1.8510 hc         1 LEH       0.036700
     53 H15         -4.5650    -1.3130    -0.0120 hc         1 LEH       0.040200
     54 H15A        -4.7370     0.1370     0.9780 hc         1 LEH       0.040200
     55 H16         -6.2640     1.1360    -0.7500 hc         1 LEH       0.039200
     56 H16A        -6.0920    -0.3140    -1.7400 hc         1 LEH       0.039200
     57 H17         -7.1130    -1.6910     0.0980 hc         1 LEH       0.054200
     58 H17A        -7.2850    -0.2420     1.0890 hc         1 LEH       0.054200
     59 H18         -8.8150     0.7580    -0.6340 h1         1 LEH       0.058200
     60 H18A        -8.6420    -0.7010    -1.6280 h1         1 LEH       0.058200
     61 H20         -9.7980    -2.9420    -0.7490 h4         1 LEH       0.155000
     62 H21        -11.8770    -3.2510     1.0120 h4         1 LEH       0.034100
     63 H19        -10.3700     0.6560     1.4400 h5         1 LEH       0.051100
@<TRIPOS>BOND
     1     1     2 2   
     2     2     3 1   
     3     2    12 1   
     4     3     4 1   
     5     3    28 1   
     6     4     5 1   
     7     4     9 1   
     8     4    29 1   
     9     5     6 1   
    10     5    30 1   
    11     5    31 1   
    12     6     7 1   
    13     6     8 1   
    14     6    32 1   
    15     7    33 1   
    16     7    34 1   
    17     7    35 1   
    18     8    36 1   
    19     8    37 1   
    20     8    38 1   
    21     9    10 1   
    22     9    11 1   
    23    12    13 1   
    24    12    39 1   
    25    12    40 1   
    26    13    14 1   
    27    13    41 1   
    28    13    42 1   
    29    14    15 1   
    30    14    43 1   
    31    14    44 1   
    32    15    16 1   
    33    15    45 1   
    34    15    46 1   
    35    16    17 1   
    36    16    47 1   
    37    16    48 1   
    38    17    18 1   
    39    17    49 1   
    40    17    50 1   
    41    18    19 1   
    42    18    51 1   
    43    18    52 1   
    44    19    20 1   
    45    19    53 1   
    46    19    54 1   
    47    20    21 1   
    48    20    55 1   
    49    20    56 1   
    50    21    22 1   
    51    21    57 1   
    52    21    58 1   
    53    22    23 1   
    54    22    59 1   
    55    22    60 1   
    56    23    24 1   
    57    23    27 1   
    58    24    25 2   
    59    24    61 1   
    60    25    26 1   
    61    25    62 1   
    62    26    27 2   
    63    27    63 1   
@<TRIPOS>SUBSTRUCTURE
     1 LEH         1 TEMP              0 ****  ****    0 ROOT
