@<TRIPOS>MOLECULE
LEI
   19    18     1     0     0
SMALL
bcc


@<TRIPOS>ATOM
      1 N            8.3680     2.2770     6.2170 n8         1 LEI      -0.888800
      2 CA           8.2590     0.9300     5.6860 c3         1 LEI       0.031500
      3 CB           8.8770    -0.1660     6.6070 c3         1 LEI       0.079100
      4 C8           8.2090    -0.1340     7.9840 c3         1 LEI      -0.077100
      5 C9          10.3860    -0.0340     6.7730 c3         1 LEI      -0.077100
      6 SG           8.4670    -1.8500     5.9750 sh         1 LEI      -0.517900
      7 C            8.8630     0.9260     4.2540 c          1 LEI       0.929600
      8 O            9.8980     1.6010     4.0860 o          1 LEI      -0.830800
      9 HN           8.1090     2.3210     7.1930 hn         1 LEI       0.328300
     10 HN2          9.3250     2.5940     6.1380 hn         1 LEI       0.328300
     11 HA           7.1950     0.6830     5.6050 h1         1 LEI       0.061700
     12 H8           8.5370    -0.9740     8.5980 hc         1 LEI       0.031200
     13 H8A          8.4820     0.7730     8.5250 hc         1 LEI       0.031200
     14 H8B          7.1210    -0.1710     7.9060 hc         1 LEI       0.031200
     15 H9          10.9190    -0.1840     5.8360 hc         1 LEI       0.031200
     16 H9A         10.6400     0.9590     7.1490 hc         1 LEI       0.031200
     17 H9B         10.7550    -0.7640     7.4940 hc         1 LEI       0.031200
     18 HSG          8.9780    -1.7340     4.7450 hs         1 LEI       0.275800
     19 OXT          8.2680     0.2510     3.3910 o          1 LEI      -0.830800
@<TRIPOS>BOND
     1     1     2 1   
     2     1     9 1   
     3     1    10 1   
     4     2     3 1   
     5     2     7 1   
     6     2    11 1   
     7     3     4 1   
     8     3     5 1   
     9     3     6 1   
    10     4    12 1   
    11     4    13 1   
    12     4    14 1   
    13     5    15 1   
    14     5    16 1   
    15     5    17 1   
    16     6    18 1   
    17     7     8 1   
    18     7    19 1   
@<TRIPOS>SUBSTRUCTURE
     1 LEI         1 TEMP              0 ****  ****    0 ROOT
