@<TRIPOS>MOLECULE
LEI
   19    18     1     0     0
SMALL
No Charge or Current Charge


@<TRIPOS>ATOM
      1 N            8.3280     2.3190     6.2770 n8         1 LEI      -0.999200
      2 CA           8.3060     0.9280     5.6600 c3         1 LEI       0.031500
      3 CB           8.8870    -0.1810     6.6190 c3         1 LEI       0.127000
      4 C8           8.2050    -0.1160     8.0130 c3         1 LEI      -0.077100
      5 C9          10.4190    -0.0220     6.8030 c3         1 LEI      -0.077100
      6 SG           8.5380    -1.8650     5.9230 sh         1 LEI      -0.565800
      7 C            8.9350     0.8100     4.2080 c          1 LEI       0.719000
      8 O            9.8460     1.5680     3.8950 o          1 LEI      -0.725500
      9 HN           8.0840     2.2570     7.2710 hn         1 LEI       0.383500
     10 HN2          9.2960     2.6620     6.2740 hn         1 LEI       0.383500
     11 HA           7.2430     0.6810     5.5290 h1         1 LEI       0.061700
     12 H8           8.5330    -0.9530     8.6420 hc         1 LEI       0.031200
     13 H8A          8.4530     0.8100     8.5450 hc         1 LEI       0.031200
     14 H8B          7.1140    -0.1770     7.9160 hc         1 LEI       0.031200
     15 H9          10.9490    -0.1460     5.8520 hc         1 LEI       0.031200
     16 H9A         10.6720     0.9640     7.2100 hc         1 LEI       0.031200
     17 H9B         10.8050    -0.7790     7.4960 hc         1 LEI       0.031200
     18 HSG          8.6200    -1.4820     4.6150 hs         1 LEI       0.275800
     19 OXT          8.4230     0.0280     3.4160 o          1 LEI      -0.725500
@<TRIPOS>BOND
     1     1     2 1   
     2     1     9 1   
     3     1    10 1   
     4     2     3 1   
     5     2     7 1   
     6     2    11 1   
     7     3     4 1   
     8     3     5 1   
     9     3     6 1   
    10     4    12 1   
    11     4    13 1   
    12     4    14 1   
    13     5    15 1   
    14     5    16 1   
    15     5    17 1   
    16     6    18 1   
    17     7     8 1   
    18     7    19 1   
@<TRIPOS>SUBSTRUCTURE
     1 LEI         1 TEMP              0 ****  ****    0 ROOT
