@<TRIPOS>MOLECULE
LEJ
   29    30     1     0     0
SMALL
abcg2


@<TRIPOS>ATOM
      1 N1          -3.3790     0.3620    -0.1910 na         1 LEJ       0.048800
      2 N3           0.3210    -1.2100    -0.7320 ns         1 LEJ      -0.491900
      3 C4          -1.8020    -0.9240     0.3200 cc         1 LEJ       0.213500
      4 C5          -0.4810    -1.5970     0.2700 c          1 LEJ       0.533600
      5 C6           1.6490    -1.7370    -0.9520 c3         1 LEJ       0.152300
      6 C7           2.7370    -0.8340    -0.4260 ca         1 LEJ      -0.133300
      7 C8           2.8550    -0.5840     0.9410 ca         1 LEJ      -0.070000
      8 C10          4.7270     0.8300     0.5360 ca         1 LEJ       0.176000
      9 C1          -4.0710     1.3360    -0.9640 c3         1 LEJ       0.329300
     10 C11          4.6460     0.6030    -0.8220 ca         1 LEJ      -0.154500
     11 C12          3.6410    -0.2340    -1.2940 ca         1 LEJ      -0.070000
     12 C2          -3.8290    -0.3110     0.8990 cd         1 LEJ      -0.145000
     13 C3          -2.8230    -1.1600     1.2640 cc         1 LEJ      -0.163000
     14 C9           3.8470     0.2490     1.4320 ca         1 LEJ      -0.154500
     15 F1          -5.1430     0.7730    -1.5590 f          1 LEJ      -0.105000
     16 F2          -4.5490     2.2960    -0.1490 f          1 LEJ      -0.105000
     17 F3           5.6900     1.6410     1.0060 f          1 LEJ      -0.179000
     18 N2          -2.1550    -0.0030    -0.5510 nd         1 LEJ      -0.510800
     19 O1          -0.1920    -2.4440     1.1040 o          1 LEJ      -0.597100
     20 H1          -0.0010    -0.4760    -1.3440 hn         1 LEJ       0.332500
     21 H2           1.7120    -2.7190    -0.4840 h1         1 LEJ       0.065200
     22 H3           1.7820    -1.8880    -2.0230 h1         1 LEJ       0.065200
     23 H4           2.1680    -1.0500     1.6370 ha         1 LEJ       0.123000
     24 H5          -3.4010     1.7580    -1.7080 h3         1 LEJ       0.110700
     25 H6           5.3480     1.0680    -1.5010 ha         1 LEJ       0.133000
     26 H7           3.5680    -0.4170    -2.3590 ha         1 LEJ       0.123000
     27 H8          -4.8050    -0.1400     1.3230 h4         1 LEJ       0.172000
     28 H9          -2.8170    -1.8500     2.0890 ha         1 LEJ       0.168000
     29 H10          3.9380     0.4410     2.4930 ha         1 LEJ       0.133000
@<TRIPOS>BOND
     1     1     9 1   
     2     1    12 1   
     3     1    18 1   
     4     2     4 1   
     5     2     5 1   
     6     2    20 1   
     7     3     4 1   
     8     3    13 1   
     9     3    18 2   
    10     4    19 2   
    11     5     6 1   
    12     5    21 1   
    13     5    22 1   
    14     6     7 ar  
    15     6    11 ar  
    16     7    14 ar  
    17     7    23 1   
    18     8    10 ar  
    19     8    14 ar  
    20     8    17 1   
    21     9    15 1   
    22     9    16 1   
    23     9    24 1   
    24    10    11 ar  
    25    10    25 1   
    26    11    26 1   
    27    12    13 2   
    28    12    27 1   
    29    13    28 1   
    30    14    29 1   
@<TRIPOS>SUBSTRUCTURE
     1 LEJ         1 TEMP              0 ****  ****    0 ROOT
