@<TRIPOS>MOLECULE
LEJ
   29    30     1     0     0
SMALL
No Charge or Current Charge


@<TRIPOS>ATOM
      1 N1          -3.4200     0.3990    -0.3300 na         1 LEJ       0.048800
      2 N3           0.3690    -1.3310    -0.7100 ns         1 LEJ      -0.491900
      3 C4          -1.7840    -0.8350     0.2610 cc         1 LEJ       0.213500
      4 C5          -0.4780    -1.5740     0.3540 c          1 LEJ       0.533600
      5 C6           1.7110    -1.8900    -0.8650 c3         1 LEJ       0.152300
      6 C7           2.7720    -0.9240    -0.3580 ca         1 LEJ      -0.133300
      7 C8           3.1510    -0.9390     1.0000 ca         1 LEJ      -0.070000
      8 C10          4.7270     0.8650     0.5850 ca         1 LEJ       0.176000
      9 C1          -4.2050     1.3410    -1.1580 c3         1 LEJ       0.329300
     10 C11          4.3540     0.8880    -0.7670 ca         1 LEJ      -0.154500
     11 C12          3.3770    -0.0060    -1.2400 ca         1 LEJ      -0.070000
     12 C2          -3.8220    -0.1720     0.8850 cd         1 LEJ      -0.145000
     13 C3          -2.7720    -0.9570     1.2540 cc         1 LEJ      -0.163000
     14 C9           4.1280    -0.0440     1.4700 ca         1 LEJ      -0.154500
     15 F1          -5.3800     0.7790    -1.5280 f          1 LEJ      -0.105000
     16 F2          -4.5040     2.4560    -0.4510 f          1 LEJ      -0.105000
     17 F3           5.6650     1.7250     1.0380 f          1 LEJ      -0.179000
     18 N2          -2.1480    -0.0150    -0.7190 nd         1 LEJ      -0.510800
     19 O1          -0.1650    -2.3280     1.2700 o          1 LEJ      -0.597100
     20 H1           0.0220    -0.6880    -1.4140 hn         1 LEJ       0.332500
     21 H2           1.7820    -2.8430    -0.3240 h1         1 LEJ       0.065200
     22 H3           1.8820    -2.1030    -1.9290 h1         1 LEJ       0.065200
     23 H4           2.6860    -1.6410     1.6890 ha         1 LEJ       0.123000
     24 H5          -3.6260     1.6080    -2.0460 h3         1 LEJ       0.110700
     25 H6           4.8220     1.5960    -1.4460 ha         1 LEJ       0.133000
     26 H7           3.0890     0.0160    -2.2890 ha         1 LEJ       0.123000
     27 H8          -4.7790     0.0240     1.3570 h4         1 LEJ       0.172000
     28 H9          -2.6920    -1.5720     2.1460 ha         1 LEJ       0.168000
     29 H10          4.4210    -0.0540     2.5170 ha         1 LEJ       0.133000
@<TRIPOS>BOND
     1     1     9 1   
     2     1    12 1   
     3     1    18 1   
     4     2     4 1   
     5     2     5 1   
     6     2    20 1   
     7     3     4 1   
     8     3    13 1   
     9     3    18 2   
    10     4    19 2   
    11     5     6 1   
    12     5    21 1   
    13     5    22 1   
    14     6     7 ar  
    15     6    11 ar  
    16     7    14 ar  
    17     7    23 1   
    18     8    10 ar  
    19     8    14 ar  
    20     8    17 1   
    21     9    15 1   
    22     9    16 1   
    23     9    24 1   
    24    10    11 ar  
    25    10    25 1   
    26    11    26 1   
    27    12    13 2   
    28    12    27 1   
    29    13    28 1   
    30    14    29 1   
@<TRIPOS>SUBSTRUCTURE
     1 LEJ         1 TEMP              0 ****  ****    0 ROOT
