@<TRIPOS>MOLECULE
LEK
   42    45     1     0     0
SMALL
No Charge or Current Charge


@<TRIPOS>ATOM
      1 C4          -4.3510    -1.1140    -0.4760 ca         1 LEK      -0.076000
      2 C5          -4.2570     0.3030    -0.4440 ca         1 LEK      -0.131300
      3 C6          -5.5180     1.1530    -0.4920 c3         1 LEK       0.210100
      4 N1          -5.8950     1.5820     0.8640 n7         1 LEK      -0.861400
      5 C7          -7.1320     2.3810     0.9460 c3         1 LEK       0.145100
      6 C8          -2.9900     0.9310    -0.3690 ca         1 LEK      -0.024000
      7 N2           4.5800    -0.5860     0.5200 nc         1 LEK      -0.638000
      8 C9          -1.8380     0.1230    -0.3320 cp         1 LEK      -0.093000
      9 C10         -0.4180     0.4610    -0.2460 cp         1 LEK      -0.076000
     10 C11          0.2440     1.6970    -0.1610 ca         1 LEK      -0.058000
     11 C12          1.6540     1.7010    -0.0700 ca         1 LEK      -0.133000
     12 C13          2.4060     0.4880    -0.0740 ca         1 LEK      -0.097500
     13 C14          3.8730     0.4960     0.0620 cc         1 LEK       0.347500
     14 C15          4.5980     1.5980    -0.3170 cd         1 LEK      -0.263000
     15 C3          -3.1920    -1.9190    -0.4370 ca         1 LEK      -0.147000
     16 C2          -1.9570    -1.2640    -0.3680 ca         1 LEK       0.005800
     17 C18          0.3160    -0.7200    -0.2310 ca         1 LEK      -0.006200
     18 N           -0.6390    -1.7470    -0.3120 na         1 LEK      -0.096600
     19 C1          -0.2970    -3.1800    -0.3110 c3         1 LEK       0.082600
     20 C           -0.2160    -3.7720     1.1080 c3         1 LEK      -0.117100
     21 C17          1.7130    -0.7500    -0.1360 ca         1 LEK      -0.106000
     22 C16          5.8790    -0.3020     0.5140 cd         1 LEK       0.414300
     23 S            6.3090     1.3080    -0.0670 ss         1 LEK      -0.028400
     24 H1          -5.3270    -1.5920    -0.5310 ha         1 LEK       0.107000
     25 H2          -5.3390     2.0260    -1.1360 h1         1 LEK       0.033200
     26 H3          -6.3290     0.5700    -0.9510 h1         1 LEK       0.033200
     27 H4          -6.0210     0.7350     1.4320 hn         1 LEK       0.411000
     28 H6          -7.3410     2.6630     1.9870 h1         1 LEK       0.028367
     29 H7          -7.0420     3.3030     0.3550 h1         1 LEK       0.028367
     30 H8          -7.9930     1.8130     0.5680 h1         1 LEK       0.028367
     31 H9          -2.9060     2.0150    -0.3370 ha         1 LEK       0.130000
     32 H10         -0.3170     2.6280    -0.1560 ha         1 LEK       0.118000
     33 H11          2.1570     2.6610     0.0180 ha         1 LEK       0.110000
     34 H12          4.2500     2.5340    -0.7320 h4         1 LEK       0.163000
     35 H13         -3.2610    -3.0040    -0.4580 ha         1 LEK       0.116000
     36 H14         -1.0500    -3.7270    -0.8920 h1         1 LEK       0.057200
     37 H15          0.6670    -3.3160    -0.8180 h1         1 LEK       0.057200
     38 H16          0.5510    -3.2570     1.6980 hc         1 LEK       0.046367
     39 H17         -1.1780    -3.6700     1.6240 hc         1 LEK       0.046367
     40 H18          0.0400    -4.8370     1.0620 hc         1 LEK       0.046367
     41 H19          2.2470    -1.6960    -0.1170 ha         1 LEK       0.138000
     42 H20          6.6600    -0.9820     0.8310 h5         1 LEK       0.052100
@<TRIPOS>BOND
     1     1     2 ar  
     2     1    15 ar  
     3     1    24 1   
     4     2     3 1   
     5     2     6 ar  
     6     3     4 1   
     7     3    25 1   
     8     3    26 1   
     9     4     5 1   
    10     4    27 1   
    11     5    28 1   
    12     5    29 1   
    13     5    30 1   
    14     6     8 ar  
    15     6    31 1   
    16     7    13 1   
    17     7    22 2   
    18     8     9 1   
    19     8    16 ar  
    20     9    10 ar  
    21     9    17 ar  
    22    10    11 ar  
    23    10    32 1   
    24    11    12 ar  
    25    11    33 1   
    26    12    13 1   
    27    12    21 ar  
    28    13    14 2   
    29    14    23 1   
    30    14    34 1   
    31    15    16 ar  
    32    15    35 1   
    33    16    18 1   
    34    17    18 1   
    35    17    21 ar  
    36    18    19 1   
    37    19    20 1   
    38    19    36 1   
    39    19    37 1   
    40    20    38 1   
    41    20    39 1   
    42    20    40 1   
    43    21    41 1   
    44    22    23 1   
    45    22    42 1   
@<TRIPOS>SUBSTRUCTURE
     1 LEK         1 TEMP              0 ****  ****    0 ROOT
