@<TRIPOS>MOLECULE
LEK
   42    45     1     0     0
SMALL
bcc


@<TRIPOS>ATOM
      1 C4          -4.2600    -1.2720    -0.4370 ca         1 LEK      -0.094000
      2 C5          -4.2790     0.1260    -0.3390 ca         1 LEK      -0.131300
      3 C6          -5.5890     0.8710    -0.3630 c3         1 LEK       0.210100
      4 N1          -5.6720     1.8520     0.7000 n7         1 LEK      -0.806200
      5 C7          -6.9050     2.6110     0.6580 c3         1 LEK       0.145100
      6 C8          -3.0780     0.8150    -0.2320 ca         1 LEK      -0.042000
      7 N2           4.4620    -0.5960     0.0470 nc         1 LEK      -0.638000
      8 C9          -1.8800     0.1090    -0.2350 cp         1 LEK      -0.093000
      9 C10         -0.4980     0.4960    -0.1420 cp         1 LEK      -0.076000
     10 C11          0.1620     1.7160    -0.0160 ca         1 LEK      -0.076000
     11 C12          1.5410     1.7350     0.0480 ca         1 LEK      -0.151000
     12 C13          2.2910     0.5450    -0.0110 ca         1 LEK      -0.097500
     13 C14          3.7580     0.5800     0.0510 cc         1 LEK       0.412800
     14 C15          4.5430     1.6980     0.1090 cd         1 LEK      -0.201400
     15 C3          -3.0820    -2.0010    -0.4440 ca         1 LEK      -0.165000
     16 C2          -1.8870    -1.2960    -0.3480 ca         1 LEK       0.005800
     17 C18          0.2570    -0.6930    -0.2030 ca         1 LEK      -0.006200
     18 N           -0.5940    -1.7620    -0.3450 na         1 LEK      -0.067300
     19 C1          -0.2100    -3.1560    -0.3460 c3         1 LEK       0.053300
     20 C           -0.2530    -3.7850     1.0370 c3         1 LEK      -0.117100
     21 C17          1.6450    -0.6810    -0.1340 ca         1 LEK      -0.124000
     22 C16          5.7350    -0.3910     0.1010 cd         1 LEK       0.414300
     23 S            6.1940     1.2620     0.1610 ss         1 LEK      -0.173300
     24 H1          -5.2010    -1.8050    -0.5060 ha         1 LEK       0.125000
     25 H2          -5.6850     1.4070    -1.3150 h1         1 LEK       0.033200
     26 H3          -6.4190     0.1470    -0.3440 h1         1 LEK       0.033200
     27 H4          -5.6010     1.3770     1.5910 hn         1 LEK       0.355800
     28 H6          -6.9490     3.2890     1.5100 h1         1 LEK       0.028367
     29 H7          -6.9340     3.2160    -0.2500 h1         1 LEK       0.028367
     30 H8          -7.8160     1.9960     0.6700 h1         1 LEK       0.028367
     31 H9          -3.0810     1.8950    -0.1420 ha         1 LEK       0.148000
     32 H10         -0.3950     2.6430     0.0340 ha         1 LEK       0.136000
     33 H11          2.0440     2.6870     0.1530 ha         1 LEK       0.128000
     34 H12          4.2490     2.7350     0.1200 h4         1 LEK       0.181000
     35 H13         -3.1050    -3.0810    -0.5130 ha         1 LEK       0.134000
     36 H14         -0.8710    -3.6910    -1.0300 h1         1 LEK       0.057200
     37 H15          0.7920    -3.2310    -0.7690 h1         1 LEK       0.057200
     38 H16          0.4200    -3.2750     1.7260 hc         1 LEK       0.046367
     39 H17         -1.2590    -3.7530     1.4560 hc         1 LEK       0.046367
     40 H18          0.0520    -4.8300     0.9790 hc         1 LEK       0.046367
     41 H19          2.2220    -1.5950    -0.1760 ha         1 LEK       0.156000
     42 H20          6.4750    -1.1770     0.1100 h5         1 LEK       0.052100
@<TRIPOS>BOND
     1     1     2 ar  
     2     1    15 ar  
     3     1    24 1   
     4     2     3 1   
     5     2     6 ar  
     6     3     4 1   
     7     3    25 1   
     8     3    26 1   
     9     4     5 1   
    10     4    27 1   
    11     5    28 1   
    12     5    29 1   
    13     5    30 1   
    14     6     8 ar  
    15     6    31 1   
    16     7    13 1   
    17     7    22 2   
    18     8     9 1   
    19     8    16 ar  
    20     9    10 ar  
    21     9    17 ar  
    22    10    11 ar  
    23    10    32 1   
    24    11    12 ar  
    25    11    33 1   
    26    12    13 1   
    27    12    21 ar  
    28    13    14 2   
    29    14    23 1   
    30    14    34 1   
    31    15    16 ar  
    32    15    35 1   
    33    16    18 1   
    34    17    18 1   
    35    17    21 ar  
    36    18    19 1   
    37    19    20 1   
    38    19    36 1   
    39    19    37 1   
    40    20    38 1   
    41    20    39 1   
    42    20    40 1   
    43    21    41 1   
    44    22    23 1   
    45    22    42 1   
@<TRIPOS>SUBSTRUCTURE
     1 LEK         1 TEMP              0 ****  ****    0 ROOT
