@<TRIPOS>MOLECULE
LEL
   19    20     1     0     0
SMALL
abcg2


@<TRIPOS>ATOM
      1 O1           2.8000    -2.0450     0.0860 o          1 LEL      -0.710500
      2 C5           3.0530    -0.8280     0.0580 c          1 LEL       0.715600
      3 O            4.1710    -0.2840     0.0510 o          1 LEL      -0.710500
      4 C4           1.8470     0.1120     0.0290 ca         1 LEL      -0.116600
      5 C            2.0060     1.4930    -0.0020 ca         1 LEL      -0.125000
      6 C3           0.5520    -0.3860     0.0350 ca         1 LEL      -0.096000
      7 C2          -0.5210     0.5000     0.0120 ca         1 LEL       0.261000
      8 N7          -0.3610     1.8220    -0.0180 nb         1 LEL      -0.703000
      9 C1           0.8760     2.2960    -0.0240 ca         1 LEL       0.291900
     10 C6          -1.9050     0.0300     0.0190 cc         1 LEL       0.189000
     11 N3          -2.2420    -1.2530     0.0420 nd         1 LEL      -0.495800
     12 N2          -3.5450    -1.2390     0.0410 na         1 LEL       0.097600
     13 N1          -4.1100    -0.0600     0.0200 nd         1 LEL      -0.540800
     14 C7          -3.0900     0.7800     0.0050 cc         1 LEL       0.222900
     15 HA           2.9910     1.9380    -0.0080 ha         1 LEL       0.135000
     16 H3           0.3820    -1.4540     0.0590 ha         1 LEL       0.150000
     17 H1           0.9770     3.3760    -0.0480 h4         1 LEL      -0.008900
     18 H7          -3.2300     1.8480    -0.0140 h4         1 LEL       0.056100
     19 H2          -4.0860    -2.0910     0.0570 hn         1 LEL       0.387000
@<TRIPOS>BOND
     1     1     2 1   
     2     2     3 1   
     3     2     4 1   
     4     4     5 ar  
     5     4     6 ar  
     6     5     9 ar  
     7     5    15 1   
     8     6     7 ar  
     9     6    16 1   
    10     7     8 ar  
    11     7    10 1   
    12     8     9 ar  
    13     9    17 1   
    14    10    11 2   
    15    10    14 1   
    16    11    12 1   
    17    12    13 1   
    18    12    19 1   
    19    13    14 2   
    20    14    18 1   
@<TRIPOS>SUBSTRUCTURE
     1 LEL         1 TEMP              0 ****  ****    0 ROOT
