@<TRIPOS>MOLECULE
LEL
   19    20     1     0     0
SMALL
No Charge or Current Charge


@<TRIPOS>ATOM
      1 O1           2.8940    -2.0210     0.0810 o          1 LEL      -0.710500
      2 C5           3.0860    -0.8130     0.0550 c          1 LEL       0.715600
      3 O            4.2040    -0.3160     0.0470 o          1 LEL      -0.710500
      4 C4           1.8820     0.1110     0.0300 ca         1 LEL      -0.116600
      5 C            2.0270     1.5150    -0.0000 ca         1 LEL      -0.125000
      6 C3           0.5620    -0.3950     0.0370 ca         1 LEL      -0.096000
      7 C2          -0.5440     0.4880     0.0140 ca         1 LEL       0.261000
      8 N7          -0.3730     1.8380    -0.0150 nb         1 LEL      -0.703000
      9 C1           0.8860     2.3300    -0.0220 ca         1 LEL       0.291900
     10 C6          -1.9230    -0.0420     0.0220 cc         1 LEL       0.189000
     11 N3          -2.2440    -1.3230     0.0490 nd         1 LEL      -0.495800
     12 N2          -3.6380    -1.2570     0.0430 na         1 LEL       0.097600
     13 N1          -4.1790     0.0280     0.0130 nd         1 LEL      -0.540800
     14 C7          -3.0800     0.7510     0.0010 cc         1 LEL       0.222900
     15 HA           3.0100     1.9790    -0.0080 ha         1 LEL       0.135000
     16 H3           0.3910    -1.4670     0.0610 ha         1 LEL       0.150000
     17 H1           0.9790     3.4150    -0.0460 h4         1 LEL      -0.008900
     18 H7          -3.1520     1.8300    -0.0240 h4         1 LEL       0.056100
     19 H2          -4.2230    -2.0980     0.0600 hn         1 LEL       0.387000
@<TRIPOS>BOND
     1     1     2 1   
     2     2     3 1   
     3     2     4 1   
     4     4     5 ar  
     5     4     6 ar  
     6     5     9 ar  
     7     5    15 1   
     8     6     7 ar  
     9     6    16 1   
    10     7     8 ar  
    11     7    10 1   
    12     8     9 ar  
    13     9    17 1   
    14    10    11 2   
    15    10    14 1   
    16    11    12 1   
    17    12    13 1   
    18    12    19 1   
    19    13    14 2   
    20    14    18 1   
@<TRIPOS>SUBSTRUCTURE
     1 LEL         1 TEMP              0 ****  ****    0 ROOT
