@<TRIPOS>MOLECULE
LEN
   19    18     1     0     0
SMALL
No Charge or Current Charge


@<TRIPOS>ATOM
      1 CD2         -1.3780     1.4380    -0.2260 c3         1 LEN      -0.087600
      2 CG          -1.0960     0.0090     0.2970 c3         1 LEN      -0.060700
      3 CD1         -2.2420    -0.9520    -0.0930 c3         1 LEN      -0.087600
      4 CB           0.2790    -0.5440    -0.1700 c3         1 LEN      -0.076400
      5 CA           1.4970     0.2700     0.3210 c3         1 LEN       0.148800
      6 N            2.7680    -0.3580    -0.0860 n8         1 LEN      -0.996200
      7 HD21        -0.6420     2.1540     0.1570 hc         1 LEN       0.031867
      8 HD22        -1.3500     1.4660    -1.3220 hc         1 LEN       0.031867
      9 HD23        -2.3680     1.7800     0.0980 hc         1 LEN       0.031867
     10 HG          -1.0770     0.0590     1.3930 hc         1 LEN       0.043700
     11 HD11        -2.3180    -1.0480    -1.1830 hc         1 LEN       0.031867
     12 HD12        -2.0720    -1.9500     0.3290 hc         1 LEN       0.031867
     13 HD13        -3.2030    -0.5850     0.2880 hc         1 LEN       0.031867
     14 HB1          0.3830    -1.5750     0.1910 hc         1 LEN       0.045700
     15 HB2          0.2940    -0.5920    -1.2670 hc         1 LEN       0.045700
     16 HA1          1.4660     1.2860    -0.0940 h1         1 LEN       0.026200
     17 HA2          1.4770     0.3400     1.4180 h1         1 LEN       0.026200
     18 HN1          2.8290    -0.3500    -1.1110 hn         1 LEN       0.390000
     19 HN2          3.5470     0.2440     0.2070 hn         1 LEN       0.390000
@<TRIPOS>BOND
     1     1     2 1   
     2     1     7 1   
     3     1     8 1   
     4     1     9 1   
     5     2     3 1   
     6     2     4 1   
     7     2    10 1   
     8     3    11 1   
     9     3    12 1   
    10     3    13 1   
    11     4     5 1   
    12     4    14 1   
    13     4    15 1   
    14     5     6 1   
    15     5    16 1   
    16     5    17 1   
    17     6    18 1   
    18     6    19 1   
@<TRIPOS>SUBSTRUCTURE
     1 LEN         1 TEMP              0 ****  ****    0 ROOT
