@<TRIPOS>MOLECULE
LEN
   19    18     1     0     0
SMALL
abcg2


@<TRIPOS>ATOM
      1 CD2         -1.3830     1.4170    -0.2710 c3         1 LEN      -0.087600
      2 CG          -1.0730     0.0330     0.2930 c3         1 LEN      -0.060700
      3 CD1         -2.1930    -0.9410    -0.0530 c3         1 LEN      -0.087600
      4 CB           0.2740    -0.5040    -0.1930 c3         1 LEN      -0.076400
      5 CA           1.4840     0.2490     0.3400 c3         1 LEN       0.148800
      6 N            2.7210    -0.3710    -0.1180 n8         1 LEN      -0.996200
      7 HD21        -0.6220     2.1530    -0.0090 hc         1 LEN       0.031867
      8 HD22        -1.4480     1.3840    -1.3620 hc         1 LEN       0.031867
      9 HD23        -2.3380     1.7900     0.1030 hc         1 LEN       0.031867
     10 HG          -1.0250     0.1140     1.3860 hc         1 LEN       0.043700
     11 HD11        -2.2810    -1.0660    -1.1360 hc         1 LEN       0.031867
     12 HD12        -2.0140    -1.9270     0.3790 hc         1 LEN       0.031867
     13 HD13        -3.1570    -0.5870     0.3170 hc         1 LEN       0.031867
     14 HB1          0.3720    -1.5540     0.1020 hc         1 LEN       0.045700
     15 HB2          0.2900    -0.4930    -1.2910 hc         1 LEN       0.045700
     16 HA1          1.4100     1.3120     0.0730 h1         1 LEN       0.026200
     17 HA2          1.4680     0.2080     1.4340 h1         1 LEN       0.026200
     18 HN1          2.7990    -0.2510    -1.1210 hn         1 LEN       0.390000
     19 HN2          3.5110     0.1250     0.2740 hn         1 LEN       0.390000
@<TRIPOS>BOND
     1     1     2 1   
     2     1     7 1   
     3     1     8 1   
     4     1     9 1   
     5     2     3 1   
     6     2     4 1   
     7     2    10 1   
     8     3    11 1   
     9     3    12 1   
    10     3    13 1   
    11     4     5 1   
    12     4    14 1   
    13     4    15 1   
    14     5     6 1   
    15     5    16 1   
    16     5    17 1   
    17     6    18 1   
    18     6    19 1   
@<TRIPOS>SUBSTRUCTURE
     1 LEN         1 TEMP              0 ****  ****    0 ROOT
