@<TRIPOS>MOLECULE
LEO
   27    28     1     0     0
SMALL
abcg2


@<TRIPOS>ATOM
      1 C2           1.0360     0.6860     0.2380 c6         1 LEO      -0.062400
      2 C3          -0.1860     0.0420    -1.9760 cx         1 LEO       0.101000
      3 C4          -0.9730    -0.8400     0.2610 c6         1 LEO      -0.067400
      4 C5          -1.3480    -0.4910    -1.1730 c6         1 LEO      -0.061400
      5 C6          -0.2900     0.3510     0.9350 c6         1 LEO      -0.022500
      6 C7           0.9690     0.6010    -1.2680 cx         1 LEO       0.093300
      7 C8          -0.5140     0.4910    -3.3730 c3         1 LEO      -0.078100
      8 O14          1.0180    -0.7050    -1.8380 op         1 LEO      -0.442000
      9 C17         -0.1000     0.1580     2.4200 c2         1 LEO      -0.108400
     10 C21         -0.5620     1.0570     3.2870 c2         1 LEO      -0.323000
     11 C22          0.6230    -1.0740     2.8810 c3         1 LEO      -0.056900
     12 H21          1.3390     1.6980     0.5160 hc         1 LEO       0.055200
     13 H22          1.8370     0.0250     0.5810 hc         1 LEO       0.055200
     14 H41         -0.3230    -1.7180     0.2760 hc         1 LEO       0.051700
     15 H42         -1.8760    -1.1120     0.8120 hc         1 LEO       0.051700
     16 H51         -1.7660    -1.3640    -1.6850 hc         1 LEO       0.050200
     17 H52         -2.1360     0.2690    -1.1710 hc         1 LEO       0.050200
     18 H6          -0.9530     1.2140     0.8030 hc         1 LEO       0.047700
     19 H7           1.5810     1.3320    -1.7970 h1         1 LEO       0.081700
     20 H81         -0.9450    -0.3290    -3.9530 hc         1 LEO       0.046367
     21 H82         -1.2460     1.2990    -3.3500 hc         1 LEO       0.046367
     22 H83          0.3690     0.8530    -3.8990 hc         1 LEO       0.046367
     23 H211        -1.0870     1.9450     2.9580 ha         1 LEO       0.162500
     24 H212        -0.4290     0.9390     4.3570 ha         1 LEO       0.162500
     25 H221         0.6990    -1.1050     3.9680 hc         1 LEO       0.040367
     26 H222         0.1110    -1.9820     2.5560 hc         1 LEO       0.040367
     27 H223         1.6360    -1.1270     2.4770 hc         1 LEO       0.040367
@<TRIPOS>BOND
     1     1     5 1   
     2     1     6 1   
     3     1    12 1   
     4     1    13 1   
     5     2     4 1   
     6     2     6 1   
     7     2     7 1   
     8     2     8 1   
     9     3     4 1   
    10     3     5 1   
    11     3    14 1   
    12     3    15 1   
    13     4    16 1   
    14     4    17 1   
    15     5     9 1   
    16     5    18 1   
    17     6     8 1   
    18     6    19 1   
    19     7    20 1   
    20     7    21 1   
    21     7    22 1   
    22     9    10 2   
    23     9    11 1   
    24    10    23 1   
    25    10    24 1   
    26    11    25 1   
    27    11    26 1   
    28    11    27 1   
@<TRIPOS>SUBSTRUCTURE
     1 LEO         1 TEMP              0 ****  ****    0 ROOT
