@<TRIPOS>MOLECULE
LEO
   27    28     1     0     0
SMALL
No Charge or Current Charge


@<TRIPOS>ATOM
      1 C2           1.0610     0.6840     0.2430 c6         1 LEO      -0.062400
      2 C3          -0.1680     0.0320    -2.0290 cx         1 LEO       0.101000
      3 C4          -0.9450    -0.8940     0.2630 c6         1 LEO      -0.067400
      4 C5          -1.3250    -0.5720    -1.2040 c6         1 LEO      -0.061400
      5 C6          -0.2820     0.3350     0.9420 c6         1 LEO      -0.022500
      6 C7           0.9630     0.7100    -1.2930 cx         1 LEO       0.093300
      7 C8          -0.5500     0.5170    -3.4220 c3         1 LEO      -0.078100
      8 O14          1.1300    -0.5880    -1.9160 op         1 LEO      -0.442000
      9 C17         -0.1100     0.1700     2.4580 c2         1 LEO      -0.108400
     10 C21         -0.5390     1.1170     3.3070 c2         1 LEO      -0.323000
     11 C22          0.5680    -1.1040     2.9450 c3         1 LEO      -0.056900
     12 H21          1.4160     1.6620     0.5950 hc         1 LEO       0.055200
     13 H22          1.8380    -0.0400     0.5230 hc         1 LEO       0.055200
     14 H41         -0.2640    -1.7570     0.2860 hc         1 LEO       0.051700
     15 H42         -1.8460    -1.1890     0.8180 hc         1 LEO       0.051700
     16 H51         -1.6930    -1.4780    -1.7030 hc         1 LEO       0.050200
     17 H52         -2.1610     0.1410    -1.2070 hc         1 LEO       0.050200
     18 H6          -0.9540     1.1900     0.7770 hc         1 LEO       0.047700
     19 H7           1.5080     1.5190    -1.7820 h1         1 LEO       0.081700
     20 H81         -1.1610    -0.2290    -3.9440 hc         1 LEO       0.046367
     21 H82         -1.1310     1.4450    -3.3620 hc         1 LEO       0.046367
     22 H83          0.3370     0.7140    -4.0350 hc         1 LEO       0.046367
     23 H211        -1.0210     2.0310     2.9580 ha         1 LEO       0.162500
     24 H212        -0.4230     1.0150     4.3870 ha         1 LEO       0.162500
     25 H221         0.6920    -1.1000     4.0350 hc         1 LEO       0.040367
     26 H222        -0.0210    -1.9940     2.6940 hc         1 LEO       0.040367
     27 H223         1.5650    -1.2250     2.5080 hc         1 LEO       0.040367
@<TRIPOS>BOND
     1     1     5 1   
     2     1     6 1   
     3     1    12 1   
     4     1    13 1   
     5     2     4 1   
     6     2     6 1   
     7     2     7 1   
     8     2     8 1   
     9     3     4 1   
    10     3     5 1   
    11     3    14 1   
    12     3    15 1   
    13     4    16 1   
    14     4    17 1   
    15     5     9 1   
    16     5    18 1   
    17     6     8 1   
    18     6    19 1   
    19     7    20 1   
    20     7    21 1   
    21     7    22 1   
    22     9    10 2   
    23     9    11 1   
    24    10    23 1   
    25    10    24 1   
    26    11    25 1   
    27    11    26 1   
    28    11    27 1   
@<TRIPOS>SUBSTRUCTURE
     1 LEO         1 TEMP              0 ****  ****    0 ROOT
