@<TRIPOS>MOLECULE
LEQ
   33    35     1     0     0
SMALL
No Charge or Current Charge


@<TRIPOS>ATOM
      1 C1          -9.1520    -7.2390   -17.7620 c3         1 LEQ       0.072300
      2 C3          -7.5380    -9.0970   -17.3260 cc         1 LEQ       0.029600
      3 C12         -1.3360   -14.6910   -15.8520 cc         1 LEQ      -0.235000
      4 C13         -2.5550   -14.5840   -16.4750 cd         1 LEQ      -0.119000
      5 C14         -3.2880   -13.4260   -16.0960 cd         1 LEQ      -0.120300
      6 C15         -4.6650   -13.0840   -16.6380 c6         1 LEQ       0.159300
      7 C16         -5.2930    -8.6840   -16.5170 cd         1 LEQ      -0.065000
      8 C17         -5.5820    -7.3370   -16.5240 cc         1 LEQ      -0.329200
      9 C18         -6.8730    -6.7750   -16.9230 c          1 LEQ       0.550200
     10 N2          -7.8240    -7.7290   -17.3280 n          1 LEQ      -0.267000
     11 C4          -6.3230    -9.6230   -16.9090 cd         1 LEQ      -0.279200
     12 C5          -6.1640   -11.1120   -16.9750 c          1 LEQ       0.636300
     13 O6          -6.9450   -11.8130   -17.6070 o          1 LEQ      -0.605100
     14 N7          -5.0660   -11.6870   -16.3010 n          1 LEQ      -0.403800
     15 C8          -4.7180   -11.3070   -14.8980 c6         1 LEQ       0.105000
     16 C9          -3.1930   -11.3680   -14.6310 c6         1 LEQ      -0.012100
     17 C10         -2.6270   -12.6520   -15.1770 cc         1 LEQ      -0.206300
     18 S11         -1.0600   -13.3360   -14.7610 ss         1 LEQ       0.200000
     19 H1          -9.6300    -6.6890   -16.9410 h1         1 LEQ       0.058367
     20 H2          -9.0350    -6.5680   -18.6230 h1         1 LEQ       0.058367
     21 H3          -9.8030    -8.0730   -18.0530 h1         1 LEQ       0.058367
     22 H4          -8.3770    -9.6950   -17.6720 h4         1 LEQ       0.216000
     23 H5          -0.5810   -15.4600   -15.9520 h4         1 LEQ       0.152000
     24 H6          -2.9220   -15.3150   -17.1900 ha         1 LEQ       0.137000
     25 H7          -4.6670   -13.2070   -17.7310 h1         1 LEQ       0.065200
     26 H8          -5.4100   -13.7810   -16.2290 h1         1 LEQ       0.065200
     27 H9          -4.2930    -9.0160   -16.2460 ha         1 LEQ       0.193000
     28 H10         -4.8380    -6.6020   -16.2360 ha         1 LEQ       0.211000
     29 H11         -5.1160   -10.3230   -14.6220 h1         1 LEQ       0.052200
     30 H12         -5.2090   -12.0260   -14.2270 h1         1 LEQ       0.052200
     31 H13         -3.0020   -11.2770   -13.5530 hc         1 LEQ       0.059200
     32 H14         -2.7020   -10.5090   -15.1080 hc         1 LEQ       0.059200
     33 O19         -7.0960    -5.5720   -16.9110 o          1 LEQ      -0.547000
@<TRIPOS>BOND
     1     1    10 1   
     2     1    19 1   
     3     1    20 1   
     4     1    21 1   
     5     2    10 1   
     6     2    11 2   
     7     2    22 1   
     8     3     4 2   
     9     3    18 1   
    10     3    23 1   
    11     4     5 1   
    12     4    24 1   
    13     5     6 1   
    14     5    17 2   
    15     6    14 1   
    16     6    25 1   
    17     6    26 1   
    18     7     8 2   
    19     7    11 1   
    20     7    27 1   
    21     8     9 1   
    22     8    28 1   
    23     9    10 1   
    24     9    33 2   
    25    11    12 1   
    26    12    13 2   
    27    12    14 1   
    28    14    15 1   
    29    15    16 1   
    30    15    29 1   
    31    15    30 1   
    32    16    17 1   
    33    16    31 1   
    34    16    32 1   
    35    17    18 1   
@<TRIPOS>SUBSTRUCTURE
     1 LEQ         1 TEMP              0 ****  ****    0 ROOT
