@<TRIPOS>MOLECULE
LEQ
   33    35     1     0     0
SMALL
bcc


@<TRIPOS>ATOM
      1 C1          -9.0910    -7.3660   -17.4610 c3         1 LEQ       0.072300
      2 C3          -7.4390    -9.1370   -17.2890 cc         1 LEQ       0.079600
      3 C12         -1.4440   -14.5810   -15.6840 cc         1 LEQ      -0.108100
      4 C13         -2.6300   -14.5640   -16.3460 cd         1 LEQ      -0.137000
      5 C14         -3.3910   -13.3890   -16.0730 cd         1 LEQ      -0.120300
      6 C15         -4.7320   -13.0810   -16.6690 c6         1 LEQ       0.159300
      7 C16         -5.1810    -8.6900   -16.7020 cd         1 LEQ      -0.015000
      8 C17         -5.4630    -7.3660   -16.6250 cc         1 LEQ      -0.279200
      9 C18         -6.7870    -6.8580   -16.8600 c          1 LEQ       0.692700
     10 N2          -7.7340    -7.8260   -17.1970 n          1 LEQ      -0.334000
     11 C4          -6.1930    -9.6270   -17.0290 cd         1 LEQ      -0.279200
     12 C5          -5.9580   -11.0810   -17.2260 c          1 LEQ       0.703300
     13 O6          -6.5040   -11.6700   -18.1500 o          1 LEQ      -0.605100
     14 N7          -5.1010   -11.7040   -16.3810 n          1 LEQ      -0.470800
     15 C8          -4.8410   -11.2860   -15.0110 c6         1 LEQ       0.105000
     16 C9          -3.3460   -11.2620   -14.7210 c6         1 LEQ      -0.012100
     17 C10         -2.7660   -12.5480   -15.2050 cc         1 LEQ      -0.061400
     18 S11         -1.2390   -13.1750   -14.7190 ss         1 LEQ      -0.089800
     19 H1          -9.5110    -6.8900   -16.5780 h1         1 LEQ       0.058367
     20 H2          -9.0980    -6.6540   -18.2830 h1         1 LEQ       0.058367
     21 H3          -9.7070    -8.2190   -17.7290 h1         1 LEQ       0.058367
     22 H4          -8.2550    -9.7870   -17.5710 h4         1 LEQ       0.166000
     23 H5          -0.6770   -15.3400   -15.7120 h4         1 LEQ       0.170000
     24 H6          -2.9540   -15.3550   -17.0090 ha         1 LEQ       0.155000
     25 H7          -4.6970   -13.2240   -17.7480 h1         1 LEQ       0.065200
     26 H8          -5.4890   -13.7740   -16.2820 h1         1 LEQ       0.065200
     27 H9          -4.1650    -9.0250   -16.5370 ha         1 LEQ       0.143000
     28 H10         -4.6920    -6.6440   -16.3920 ha         1 LEQ       0.161000
     29 H11         -5.2880   -10.3160   -14.8140 h1         1 LEQ       0.052200
     30 H12         -5.3290   -11.9960   -14.3360 h1         1 LEQ       0.052200
     31 H13         -3.1940   -11.1320   -13.6480 hc         1 LEQ       0.059200
     32 H14         -2.8700   -10.4090   -15.2130 hc         1 LEQ       0.059200
     33 O19         -7.1170    -5.6800   -16.7910 o          1 LEQ      -0.622500
@<TRIPOS>BOND
     1     1    10 1   
     2     1    19 1   
     3     1    20 1   
     4     1    21 1   
     5     2    10 1   
     6     2    11 2   
     7     2    22 1   
     8     3     4 2   
     9     3    18 1   
    10     3    23 1   
    11     4     5 1   
    12     4    24 1   
    13     5     6 1   
    14     5    17 2   
    15     6    14 1   
    16     6    25 1   
    17     6    26 1   
    18     7     8 2   
    19     7    11 1   
    20     7    27 1   
    21     8     9 1   
    22     8    28 1   
    23     9    10 1   
    24     9    33 2   
    25    11    12 1   
    26    12    13 2   
    27    12    14 1   
    28    14    15 1   
    29    15    16 1   
    30    15    29 1   
    31    15    30 1   
    32    16    17 1   
    33    16    31 1   
    34    16    32 1   
    35    17    18 1   
@<TRIPOS>SUBSTRUCTURE
     1 LEQ         1 TEMP              0 ****  ****    0 ROOT
