@<TRIPOS>MOLECULE
LER
   16    15     1     0     0
SMALL
bcc


@<TRIPOS>ATOM
      1 C1          -1.6760    -0.7720    -0.4230 c3         1 LER       0.038400
      2 O1          -2.8960    -0.6390     0.2370 oh         1 LER      -0.564800
      3 C2          -0.7170     0.2790     0.0590 c          1 LER       0.529100
      4 O2          -1.0490     1.1880     0.7790 o          1 LER      -0.480100
      5 C3           0.7260     0.1510    -0.4130 c3         1 LER       0.050100
      6 O3           1.3380     1.4040    -0.5140 oh         1 LER      -0.561800
      7 C4           1.4750    -0.7920     0.5270 c3         1 LER       0.111400
      8 O4           2.7580    -1.0040    -0.0010 oh         1 LER      -0.579800
      9 H1          -1.2150    -1.7610    -0.2880 h1         1 LER       0.040200
     10 H2          -1.7570    -0.6340    -1.5130 h1         1 LER       0.040200
     11 H3          -3.5070    -1.2790    -0.1390 ho         1 LER       0.410000
     12 H4           0.7310    -0.2930    -1.4150 h1         1 LER       0.094700
     13 H5           1.1430     1.9020     0.2890 ho         1 LER       0.418000
     14 H6           1.5100    -0.3400     1.5280 h1         1 LER       0.024200
     15 H7           0.9150    -1.7310     0.6240 h1         1 LER       0.024200
     16 H8           3.2290    -1.5980     0.5910 ho         1 LER       0.406000
@<TRIPOS>BOND
     1     1     2 1   
     2     1     3 1   
     3     1     9 1   
     4     1    10 1   
     5     2    11 1   
     6     3     4 2   
     7     3     5 1   
     8     5     6 1   
     9     5     7 1   
    10     5    12 1   
    11     6    13 1   
    12     7     8 1   
    13     7    14 1   
    14     7    15 1   
    15     8    16 1   
@<TRIPOS>SUBSTRUCTURE
     1 LER         1 TEMP              0 ****  ****    0 ROOT
