@<TRIPOS>MOLECULE
LER
   16    15     1     0     0
SMALL
No Charge or Current Charge


@<TRIPOS>ATOM
      1 C1          -1.7160    -0.7760    -0.4080 c3         1 LER       0.061600
      2 O1          -3.0440    -0.6850     0.1660 oh         1 LER      -0.627000
      3 C2          -0.7380     0.3370     0.0770 c          1 LER       0.529100
      4 O2          -1.1090     1.3080     0.7350 o          1 LER      -0.480100
      5 C3           0.7330     0.1970    -0.4100 c3         1 LER       0.073300
      6 O3           1.4170     1.4820    -0.4920 oh         1 LER      -0.624000
      7 C4           1.5120    -0.7880     0.5050 c3         1 LER       0.134600
      8 O4           2.8090    -1.0810    -0.0400 oh         1 LER      -0.642000
      9 H1          -1.2640    -1.7460    -0.1610 h1         1 LER       0.040200
     10 H2          -1.7670    -0.7120    -1.5030 h1         1 LER       0.040200
     11 H3          -3.5820    -1.4190    -0.2110 ho         1 LER       0.449000
     12 H4           0.6800    -0.2560    -1.4090 h1         1 LER       0.094700
     13 H5           1.2600     1.9540     0.3580 ho         1 LER       0.457000
     14 H6           1.6090    -0.3520     1.5090 h1         1 LER       0.024200
     15 H7           0.9370    -1.7180     0.6070 h1         1 LER       0.024200
     16 H8           3.2710    -1.6630     0.6050 ho         1 LER       0.445000
@<TRIPOS>BOND
     1     1     2 1   
     2     1     3 1   
     3     1     9 1   
     4     1    10 1   
     5     2    11 1   
     6     3     4 2   
     7     3     5 1   
     8     5     6 1   
     9     5     7 1   
    10     5    12 1   
    11     6    13 1   
    12     7     8 1   
    13     7    14 1   
    14     7    15 1   
    15     8    16 1   
@<TRIPOS>SUBSTRUCTURE
     1 LER         1 TEMP              0 ****  ****    0 ROOT
