@<TRIPOS>MOLECULE
LES
   30    31     1     0     0
SMALL
bcc


@<TRIPOS>ATOM
      1 N1           0.4720     0.9460    -0.3100 nu         1 LES      -0.873900
      2 N3           2.7360     1.0790    -0.5700 nb         1 LES      -0.774000
      3 C4          -1.1810    -0.6880    -1.0380 c3         1 LES       0.148800
      4 C5          -3.5800    -0.8630    -0.4980 c3         1 LES       0.168800
      5 C6           1.6790     0.3880    -0.1120 ca         1 LES       0.907900
      6 C7           2.9500    -1.2840     0.7320 ca         1 LES       0.481200
      7 C8           4.1090    -0.6580     0.3070 ca         1 LES      -0.442600
      8 N           -2.2990    -1.5300    -0.6710 n7         1 LES      -0.813200
      9 C           -3.7030    -0.2240     0.8810 c3         1 LES      -0.075400
     10 C1          -3.0400     1.1500     1.0530 c3         1 LES      -0.063400
     11 C2          -1.8370     1.4560     0.1630 c3         1 LES      -0.087400
     12 C3          -0.7990     0.3390     0.0350 c3         1 LES       0.251500
     13 C9           3.9260     0.5490    -0.3540 ca         1 LES       0.481200
     14 N2           1.7410    -0.7830     0.5310 nb         1 LES      -0.774000
     15 H1           0.4630     1.7960    -0.8530 hn         1 LES       0.445800
     16 H2          -0.3250    -1.3460    -1.2060 h1         1 LES       0.033200
     17 H3          -1.3470    -0.1330    -1.9770 h1         1 LES       0.033200
     18 H4          -3.7900    -0.1230    -1.2870 h1         1 LES       0.026700
     19 H5          -4.3510    -1.6310    -0.5890 h1         1 LES       0.026700
     20 H6           2.9940    -2.2330     1.2570 h4         1 LES       0.018600
     21 H7           5.0870    -1.0800     0.4750 ha         1 LES       0.151000
     22 H8          -2.3950    -2.2450    -1.3800 hn         1 LES       0.359800
     23 H10         -4.7620    -0.1270     1.1340 hc         1 LES       0.047700
     24 H11         -3.2850    -0.9340     1.5980 hc         1 LES       0.047700
     25 H12         -3.7790     1.9340     0.8750 hc         1 LES       0.038200
     26 H13         -2.7400     1.2600     2.0980 hc         1 LES       0.038200
     27 H14         -2.1730     1.7300    -0.8430 hc         1 LES       0.041700
     28 H15         -1.3490     2.3470     0.5680 hc         1 LES       0.041700
     29 H16         -0.6810    -0.1730     0.9930 h1         1 LES       0.094700
     30 H17          4.7770     1.1120    -0.7230 h4         1 LES       0.018600
@<TRIPOS>BOND
     1     1     5 1   
     2     1    12 1   
     3     1    15 1   
     4     2     5 ar  
     5     2    13 ar  
     6     3     8 1   
     7     3    12 1   
     8     3    16 1   
     9     3    17 1   
    10     4     8 1   
    11     4     9 1   
    12     4    18 1   
    13     4    19 1   
    14     5    14 ar  
    15     6     7 ar  
    16     6    14 ar  
    17     6    20 1   
    18     7    13 ar  
    19     7    21 1   
    20     8    22 1   
    21     9    10 1   
    22     9    23 1   
    23     9    24 1   
    24    10    11 1   
    25    10    25 1   
    26    10    26 1   
    27    11    12 1   
    28    11    27 1   
    29    11    28 1   
    30    12    29 1   
    31    13    30 1   
@<TRIPOS>SUBSTRUCTURE
     1 LES         1 TEMP              0 ****  ****    0 ROOT
