@<TRIPOS>MOLECULE
LES
   30    31     1     0     0
SMALL
No Charge or Current Charge


@<TRIPOS>ATOM
      1 N1           0.5050     0.9410    -0.2530 nu         1 LES      -0.929100
      2 N3           2.7890     1.0930    -0.5280 nb         1 LES      -0.248000
      3 C4          -1.2010    -0.7080    -1.0480 c3         1 LES       0.148800
      4 C5          -3.6660    -0.8930    -0.4890 c3         1 LES       0.168800
      5 C6           1.7550     0.3710    -0.0620 ca         1 LES       0.381900
      6 C7           3.0500    -1.3430     0.7350 ca         1 LES       0.152900
      7 C8           4.1970    -0.6710     0.2840 ca         1 LES      -0.294000
      8 N           -2.3730    -1.5680    -0.7310 n7         1 LES      -0.868400
      9 C           -3.6910    -0.2420     0.9100 c3         1 LES      -0.075400
     10 C1          -3.1200     1.1940     0.9930 c3         1 LES      -0.063400
     11 C2          -1.8550     1.4960     0.1520 c3         1 LES      -0.087400
     12 C3          -0.8190     0.3470     0.0490 c3         1 LES       0.251500
     13 C9           4.0170     0.5670    -0.3530 ca         1 LES       0.152900
     14 N2           1.8200    -0.8210     0.5630 nb         1 LES      -0.248000
     15 H1           0.5130     1.8420    -0.7320 hn         1 LES       0.501000
     16 H2          -0.3310    -1.3600    -1.2080 h1         1 LES       0.033200
     17 H3          -1.3700    -0.1800    -1.9970 h1         1 LES       0.033200
     18 H4          -3.8920    -0.1510    -1.2670 h1         1 LES       0.026700
     19 H5          -4.4640    -1.6470    -0.5150 h1         1 LES       0.026700
     20 H6           3.1140    -2.3070     1.2390 h4         1 LES       0.018600
     21 H7           5.1890    -1.0940     0.4240 ha         1 LES       0.133000
     22 H8          -2.5030    -2.2080    -1.5250 hn         1 LES       0.415000
     23 H10         -4.7310    -0.2090     1.2560 hc         1 LES       0.047700
     24 H11         -3.1620    -0.8890     1.6200 hc         1 LES       0.047700
     25 H12         -3.9020     1.9030     0.6960 hc         1 LES       0.038200
     26 H13         -2.9020     1.4090     2.0460 hc         1 LES       0.038200
     27 H14         -2.1580     1.7940    -0.8600 hc         1 LES       0.041700
     28 H15         -1.3800     2.3810     0.5950 hc         1 LES       0.041700
     29 H16         -0.7720    -0.1590     1.0250 h1         1 LES       0.094700
     30 H17          4.8620     1.1440    -0.7280 h4         1 LES       0.018600
@<TRIPOS>BOND
     1     1     5 1   
     2     1    12 1   
     3     1    15 1   
     4     2     5 ar  
     5     2    13 ar  
     6     3     8 1   
     7     3    12 1   
     8     3    16 1   
     9     3    17 1   
    10     4     8 1   
    11     4     9 1   
    12     4    18 1   
    13     4    19 1   
    14     5    14 ar  
    15     6     7 ar  
    16     6    14 ar  
    17     6    20 1   
    18     7    13 ar  
    19     7    21 1   
    20     8    22 1   
    21     9    10 1   
    22     9    23 1   
    23     9    24 1   
    24    10    11 1   
    25    10    25 1   
    26    10    26 1   
    27    11    12 1   
    28    11    27 1   
    29    11    28 1   
    30    12    29 1   
    31    13    30 1   
@<TRIPOS>SUBSTRUCTURE
     1 LES         1 TEMP              0 ****  ****    0 ROOT
