@<TRIPOS>MOLECULE
LEV
   49    52     1     0     0
SMALL
No Charge or Current Charge


@<TRIPOS>ATOM
      1 C1           1.3160    -9.1340    23.4350 c3         1 LEV       0.153900
      2 O2           0.4010    -8.4380    22.5670 os         1 LEV      -0.374100
      3 C3           0.4960    -8.4690    21.1860 ca         1 LEV       0.188100
      4 C4           1.5240    -9.2050    20.5580 ca         1 LEV      -0.211000
      5 C5           1.6440    -9.2540    19.1650 ca         1 LEV       0.342000
      6 N6           2.6470    -9.9770    18.6190 nb         1 LEV      -0.696000
      7 C7           2.7590   -10.0270    17.2750 ca         1 LEV       0.400900
      8 C8           1.8800    -9.3590    16.4200 ca         1 LEV      -0.274000
      9 C9           0.8440    -8.5980    16.9750 ca         1 LEV       0.207100
     10 C10          0.7140    -8.5500    18.3760 ca         1 LEV      -0.148000
     11 C11         -0.3170    -7.8110    18.9880 ca         1 LEV       0.020000
     12 C12         -0.4440    -7.7580    20.3950 ca         1 LEV      -0.187600
     13 C13         -1.5860    -6.9370    20.9630 c          1 LEV       0.618700
     14 O14         -2.3750    -6.3380    20.2500 o          1 LEV      -0.627100
     15 N15         -1.7510    -6.8530    22.2960 nt         1 LEV      -0.598000
     16 O16         -0.0530    -7.9380    16.1630 os         1 LEV      -0.239200
     17 C17          0.3240    -7.2670    15.0210 ca         1 LEV       0.058100
     18 C18         -0.5320    -7.2810    13.9120 ca         1 LEV      -0.071000
     19 C19         -0.1790    -6.5940    12.7380 ca         1 LEV       0.061000
     20 C20          1.0360    -5.8760    12.6600 ca         1 LEV       0.019000
     21 C21          1.8870    -5.8560    13.7900 ca         1 LEV      -0.124000
     22 C22          1.5300    -6.5440    14.9640 ca         1 LEV      -0.075000
     23 N23          1.3400    -5.2000    11.4440 ns         1 LEV      -0.165000
     24 C24          2.4350    -4.4580    11.0370 c          1 LEV       0.662100
     25 O25          3.4300    -4.2380    11.7120 o          1 LEV      -0.613100
     26 N26          2.2950    -3.9760     9.7550 ns         1 LEV      -0.498900
     27 C27          3.2810    -3.1780     9.0780 cx         1 LEV       0.056700
     28 C28          4.2050    -3.8790     8.1130 cx         1 LEV      -0.131400
     29 C29          3.1160    -2.9730     7.5930 cx         1 LEV      -0.131400
     30 Cl          -1.2830    -6.6460    11.3630 cl         1 LEV      -0.210000
     31 H1           1.0460    -8.9660    24.4850 h1         1 LEV       0.049367
     32 H2           1.2880   -10.2150    23.2480 h1         1 LEV       0.049367
     33 H3           2.3430    -8.7760    23.2890 h1         1 LEV       0.049367
     34 H4           2.2530    -9.7560    21.1400 ha         1 LEV       0.138000
     35 H5           3.5770   -10.6260    16.8760 h4         1 LEV       0.019100
     36 H6           2.0050    -9.4400    15.3450 ha         1 LEV       0.138000
     37 H7          -1.0280    -7.2710    18.3650 ha         1 LEV       0.160000
     38 H8          -2.5100    -6.3070    22.6710 hn         1 LEV       0.326000
     39 H9          -1.1070    -7.3420    22.9010 hn         1 LEV       0.326000
     40 H10         -1.4700    -7.8280    13.9590 ha         1 LEV       0.147000
     41 H11          2.8240    -5.3090    13.7840 ha         1 LEV       0.160000
     42 H12          2.1910    -6.5080    15.8280 ha         1 LEV       0.139000
     43 H13          0.6110    -5.2820    10.7480 hn         1 LEV       0.158000
     44 H14          1.4330    -4.2040     9.2750 hn         1 LEV       0.316500
     45 H15          3.6820    -2.3520     9.6700 h1         1 LEV       0.090700
     46 H16          4.0840    -4.9510     7.9770 hc         1 LEV       0.079950
     47 H17          5.2320    -3.5260     8.0540 hc         1 LEV       0.079950
     48 H18          3.4100    -2.0100     7.1820 hc         1 LEV       0.079950
     49 H19          2.2640    -3.4360     7.1000 hc         1 LEV       0.079950
@<TRIPOS>BOND
     1     1     2 1   
     2     1    31 1   
     3     1    32 1   
     4     1    33 1   
     5     2     3 1   
     6     3     4 ar  
     7     3    12 ar  
     8     4     5 ar  
     9     4    34 1   
    10     5     6 ar  
    11     5    10 ar  
    12     6     7 ar  
    13     7     8 ar  
    14     7    35 1   
    15     8     9 ar  
    16     8    36 1   
    17     9    10 ar  
    18     9    16 1   
    19    10    11 ar  
    20    11    12 ar  
    21    11    37 1   
    22    12    13 1   
    23    13    14 2   
    24    13    15 1   
    25    15    38 1   
    26    15    39 1   
    27    16    17 1   
    28    17    18 ar  
    29    17    22 ar  
    30    18    19 ar  
    31    18    40 1   
    32    19    20 ar  
    33    19    30 1   
    34    20    21 ar  
    35    20    23 1   
    36    21    22 ar  
    37    21    41 1   
    38    22    42 1   
    39    23    24 1   
    40    23    43 1   
    41    24    25 2   
    42    24    26 1   
    43    26    27 1   
    44    26    44 1   
    45    27    28 1   
    46    27    29 1   
    47    27    45 1   
    48    28    29 1   
    49    28    46 1   
    50    28    47 1   
    51    29    48 1   
    52    29    49 1   
@<TRIPOS>SUBSTRUCTURE
     1 LEV         1 TEMP              0 ****  ****    0 ROOT
