@<TRIPOS>MOLECULE
LEV
   49    52     1     0     0
SMALL
abcg2


@<TRIPOS>ATOM
      1 C1           0.7050   -10.3270    23.0630 c3         1 LEV       0.153900
      2 O2           0.0080    -9.2430    22.4400 os         1 LEV      -0.374100
      3 C3           0.3420    -8.8730    21.1810 ca         1 LEV       0.188100
      4 C4           1.3350    -9.5060    20.4660 ca         1 LEV      -0.211000
      5 C5           1.6600    -9.1070    19.1540 ca         1 LEV       0.342000
      6 N6           2.6440    -9.7760    18.4890 nb         1 LEV      -0.696000
      7 C7           2.9130    -9.3850    17.2610 ca         1 LEV       0.400900
      8 C8           2.2690    -8.3340    16.5840 ca         1 LEV      -0.274000
      9 C9           1.2810    -7.6460    17.2480 ca         1 LEV       0.207100
     10 C10          0.9440    -8.0240    18.5750 ca         1 LEV      -0.148000
     11 C11         -0.0610    -7.3910    19.3250 ca         1 LEV       0.020000
     12 C12         -0.3850    -7.7800    20.6040 ca         1 LEV      -0.187600
     13 C13         -1.4940    -6.9990    21.2650 c          1 LEV       0.618700
     14 O14         -2.0330    -6.0610    20.6710 o          1 LEV      -0.627100
     15 N15         -1.8750    -7.3560    22.5030 nt         1 LEV      -0.598000
     16 O16          0.5830    -6.6070    16.7270 os         1 LEV      -0.239200
     17 C17          0.7870    -6.2560    15.3950 ca         1 LEV       0.058100
     18 C18         -0.0220    -6.8240    14.4270 ca         1 LEV      -0.071000
     19 C19          0.1440    -6.4380    13.1070 ca         1 LEV       0.061000
     20 C20          1.1050    -5.4870    12.7240 ca         1 LEV       0.019000
     21 C21          1.8930    -4.9260    13.7380 ca         1 LEV      -0.124000
     22 C22          1.7400    -5.3100    15.0610 ca         1 LEV      -0.075000
     23 N23          1.2010    -5.1230    11.3850 ns         1 LEV      -0.165000
     24 C24          2.2630    -4.4970    10.7530 c          1 LEV       0.662100
     25 O25          3.3050    -4.1820    11.3220 o          1 LEV      -0.613100
     26 N26          2.0470    -4.2760     9.4270 ns         1 LEV      -0.498900
     27 C27          3.0080    -3.5990     8.6110 cx         1 LEV       0.056700
     28 C28          4.1850    -4.3680     8.0770 cx         1 LEV      -0.131400
     29 C29          3.0570    -3.9720     7.1610 cx         1 LEV      -0.131400
     30 CL          -0.8920    -7.1650    11.8980 cl         1 LEV      -0.210000
     31 H1           0.2630   -10.4270    24.0500 h1         1 LEV       0.049367
     32 H2           0.5670   -11.2500    22.4980 h1         1 LEV       0.049367
     33 H3           1.7690   -10.1010    23.1520 h1         1 LEV       0.049367
     34 H4           1.8910   -10.3300    20.8860 ha         1 LEV       0.138000
     35 H5           3.6980    -9.9270    16.7420 h4         1 LEV       0.019100
     36 H6           2.5560    -8.0850    15.5740 ha         1 LEV       0.138000
     37 H7          -0.6120    -6.5690    18.8920 ha         1 LEV       0.160000
     38 H8          -2.6130    -6.8310    22.9450 hn         1 LEV       0.326000
     39 H9          -1.4290    -8.1150    22.9910 hn         1 LEV       0.326000
     40 H10         -0.7670    -7.5590    14.6960 ha         1 LEV       0.147000
     41 H11          2.6300    -4.1860    13.4720 ha         1 LEV       0.160000
     42 H12          2.3570    -4.8700    15.8330 ha         1 LEV       0.139000
     43 H13          0.4570    -5.4640    10.7940 hn         1 LEV       0.158000
     44 H14          1.1260    -4.4210     9.0460 hn         1 LEV       0.316500
     45 H15          3.1740    -2.5580     8.8650 h1         1 LEV       0.090700
     46 H16          4.2550    -5.4090     8.3620 hc         1 LEV       0.079950
     47 H17          5.1280    -3.8460     7.9930 hc         1 LEV       0.079950
     48 H18          3.2230    -3.1770     6.4460 hc         1 LEV       0.079950
     49 H19          2.3840    -4.7520     6.8300 hc         1 LEV       0.079950
@<TRIPOS>BOND
     1     1     2 1   
     2     1    31 1   
     3     1    32 1   
     4     1    33 1   
     5     2     3 1   
     6     3     4 ar  
     7     3    12 ar  
     8     4     5 ar  
     9     4    34 1   
    10     5     6 ar  
    11     5    10 ar  
    12     6     7 ar  
    13     7     8 ar  
    14     7    35 1   
    15     8     9 ar  
    16     8    36 1   
    17     9    10 ar  
    18     9    16 1   
    19    10    11 ar  
    20    11    12 ar  
    21    11    37 1   
    22    12    13 1   
    23    13    14 2   
    24    13    15 1   
    25    15    38 1   
    26    15    39 1   
    27    16    17 1   
    28    17    18 ar  
    29    17    22 ar  
    30    18    19 ar  
    31    18    40 1   
    32    19    20 ar  
    33    19    30 1   
    34    20    21 ar  
    35    20    23 1   
    36    21    22 ar  
    37    21    41 1   
    38    22    42 1   
    39    23    24 1   
    40    23    43 1   
    41    24    25 2   
    42    24    26 1   
    43    26    27 1   
    44    26    44 1   
    45    27    28 1   
    46    27    29 1   
    47    27    45 1   
    48    28    29 1   
    49    28    46 1   
    50    28    47 1   
    51    29    48 1   
    52    29    49 1   
@<TRIPOS>SUBSTRUCTURE
     1 LEV         1 TEMP              0 ****  ****    0 ROOT
