@<TRIPOS>MOLECULE
LEW
   45    48     1     0     0
SMALL
No Charge or Current Charge


@<TRIPOS>ATOM
      1 C18         -3.9930    -0.0910    -0.1530 ca         1 LEW      -0.011000
      2 C17         -3.8850    -1.1740    -1.0590 ca         1 LEW      -0.084000
      3 C16         -5.0320    -1.8550    -1.5030 ca         1 LEW      -0.113000
      4 C15         -6.3010    -1.4730    -1.0460 ca         1 LEW      -0.104000
      5 C14         -6.4250    -0.4140    -0.1350 ca         1 LEW      -0.104000
      6 C13         -5.2810     0.2730     0.3160 ca         1 LEW      -0.039000
      7 C12         -5.4310     1.3200     1.2430 ca         1 LEW      -0.092000
      8 C11         -4.3060     2.0090     1.7110 ca         1 LEW      -0.111000
      9 C10         -3.0280     1.6620     1.2500 ca         1 LEW      -0.100000
     10 C9          -2.8510     0.6160     0.3180 ca         1 LEW      -0.092500
     11 C8          -1.4890     0.3520    -0.1610 cc         1 LEW       0.254500
     12 C7          -0.4570     0.1890     0.7060 cd         1 LEW      -0.180000
     13 N3          -1.0860     0.2740    -1.4630 nc         1 LEW      -0.348000
     14 N2           0.2050     0.0510    -1.4630 nd         1 LEW      -0.193800
     15 N1           0.6100    -0.0090    -0.1440 na         1 LEW       0.116800
     16 C1           2.0160    -0.2440     0.2730 c6         1 LEW       0.297300
     17 O5           2.7560     0.9850     0.0680 os         1 LEW      -0.430000
     18 C5           4.1280     0.9400     0.5400 c6         1 LEW       0.176300
     19 C6           4.7600     2.3580     0.3510 c3         1 LEW       0.172600
     20 O6           4.0150     3.4080     1.0050 oh         1 LEW      -0.710000
     21 C4           4.9120    -0.1710    -0.2280 c6         1 LEW       0.143300
     22 O4           6.2700    -0.2990     0.2330 oh         1 LEW      -0.716000
     23 C3           4.1740    -1.5310    -0.0580 c6         1 LEW       0.133300
     24 O3           4.8440    -2.5680    -0.7940 oh         1 LEW      -0.661000
     25 C2           2.6930    -1.4150    -0.5200 c6         1 LEW       0.099300
     26 O2           2.0240    -2.6880    -0.3270 oh         1 LEW      -0.720000
     27 H17         -2.9200    -1.5130    -1.4200 ha         1 LEW       0.128000
     28 H16         -4.9330    -2.6840    -2.2000 ha         1 LEW       0.112000
     29 H15         -7.1870    -2.0020    -1.3910 ha         1 LEW       0.112000
     30 H14         -7.4120    -0.1290     0.2230 ha         1 LEW       0.111000
     31 H12         -6.4190     1.5980     1.6030 ha         1 LEW       0.113000
     32 H11         -4.4240     2.8200     2.4270 ha         1 LEW       0.114000
     33 H10         -2.1670     2.2220     1.6100 ha         1 LEW       0.112000
     34 H7          -0.4010     0.1970     1.7860 h4         1 LEW       0.173000
     35 H1           1.9840    -0.4860     1.3450 h2         1 LEW       0.063700
     36 H5           4.1250     0.7090     1.6160 h1         1 LEW       0.062700
     37 H6           5.7870     2.3310     0.7400 h1         1 LEW       0.041200
     38 H6A          4.8270     2.5590    -0.7270 h1         1 LEW       0.041200
     39 HO6          4.4570     4.2600     0.7780 ho         1 LEW       0.507000
     40 H4           4.9070     0.0900    -1.2980 h1         1 LEW       0.060700
     41 HO4          6.5570    -1.1930    -0.0760 ho         1 LEW       0.528000
     42 H3           4.1710    -1.7860     1.0130 h1         1 LEW       0.052700
     43 HO3          4.1840    -3.2990    -0.8550 ho         1 LEW       0.467000
     44 H2           2.6930    -1.1450    -1.5880 h1         1 LEW       0.084700
     45 HO2          1.1730    -2.6600    -0.8290 ho         1 LEW       0.526000
@<TRIPOS>BOND
     1     1     2 ar  
     2     1     6 ar  
     3     1    10 ar  
     4     2     3 ar  
     5     2    27 1   
     6     3     4 ar  
     7     3    28 1   
     8     4     5 ar  
     9     4    29 1   
    10     5     6 ar  
    11     5    30 1   
    12     6     7 ar  
    13     7     8 ar  
    14     7    31 1   
    15     8     9 ar  
    16     8    32 1   
    17     9    10 ar  
    18     9    33 1   
    19    10    11 1   
    20    11    12 2   
    21    11    13 1   
    22    12    15 1   
    23    12    34 1   
    24    13    14 2   
    25    14    15 1   
    26    15    16 1   
    27    16    17 1   
    28    16    25 1   
    29    16    35 1   
    30    17    18 1   
    31    18    19 1   
    32    18    21 1   
    33    18    36 1   
    34    19    20 1   
    35    19    37 1   
    36    19    38 1   
    37    20    39 1   
    38    21    22 1   
    39    21    23 1   
    40    21    40 1   
    41    22    41 1   
    42    23    24 1   
    43    23    25 1   
    44    23    42 1   
    45    24    43 1   
    46    25    26 1   
    47    25    44 1   
    48    26    45 1   
@<TRIPOS>SUBSTRUCTURE
     1 LEW         1 TEMP              0 ****  ****    0 ROOT
