@<TRIPOS>MOLECULE
LEW
   45    48     1     0     0
SMALL
abcg2


@<TRIPOS>ATOM
      1 C18         -3.9540    -0.0470    -0.1720 ca         1 LEW      -0.011000
      2 C17         -3.7830    -0.9800    -1.2250 ca         1 LEW      -0.084000
      3 C16         -4.8610    -1.5870    -1.8110 ca         1 LEW      -0.113000
      4 C15         -6.1710    -1.2990    -1.3800 ca         1 LEW      -0.104000
      5 C14         -6.3700    -0.4140    -0.3580 ca         1 LEW      -0.104000
      6 C13         -5.2770     0.2260     0.2730 ca         1 LEW      -0.039000
      7 C12         -5.4880     1.1200     1.3480 ca         1 LEW      -0.092000
      8 C11         -4.4290     1.7220     1.9650 ca         1 LEW      -0.111000
      9 C10         -3.1180     1.4670     1.5230 ca         1 LEW      -0.100000
     10 C9          -2.8650     0.6070     0.4800 ca         1 LEW      -0.092500
     11 C8          -1.4700     0.3860     0.0880 cc         1 LEW       0.254500
     12 C7          -0.3830     0.2000     0.9060 cd         1 LEW      -0.180000
     13 N3          -1.0200     0.3700    -1.1920 nc         1 LEW      -0.348000
     14 N2           0.2500     0.1870    -1.1990 nd         1 LEW      -0.193800
     15 N1           0.6520     0.0850     0.0580 na         1 LEW       0.116800
     16 C1           2.0410    -0.1370     0.3740 c6         1 LEW       0.297300
     17 O5           2.7470     0.9950    -0.0260 os         1 LEW      -0.430000
     18 C5           4.1140     0.9620     0.3550 c6         1 LEW       0.176300
     19 C6           4.7370     2.2700    -0.0820 c3         1 LEW       0.172600
     20 O6           4.1030     3.3260     0.5980 oh         1 LEW      -0.710000
     21 C4           4.8070    -0.2410    -0.2880 c6         1 LEW       0.143300
     22 O4           6.1280    -0.2770     0.1890 oh         1 LEW      -0.716000
     23 C3           4.0540    -1.5220     0.0590 c6         1 LEW       0.133300
     24 O3           4.6780    -2.5790    -0.6230 oh         1 LEW      -0.661000
     25 C2           2.5840    -1.3890    -0.3180 c6         1 LEW       0.099300
     26 O2           1.9020    -2.5370     0.1120 oh         1 LEW      -0.720000
     27 H17         -2.7900    -1.2130    -1.5800 ha         1 LEW       0.128000
     28 H16         -4.7070    -2.2960    -2.6140 ha         1 LEW       0.112000
     29 H15         -7.0130    -1.7850    -1.8550 ha         1 LEW       0.112000
     30 H14         -7.3730    -0.1930    -0.0120 ha         1 LEW       0.111000
     31 H12         -6.5010     1.3160     1.6770 ha         1 LEW       0.113000
     32 H11         -4.5870     2.4050     2.7890 ha         1 LEW       0.114000
     33 H10         -2.2940     1.9750     2.0070 ha         1 LEW       0.112000
     34 H7          -0.2780     0.1350     1.9760 h4         1 LEW       0.173000
     35 H1           2.0880    -0.2740     1.4630 h2         1 LEW       0.063700
     36 H5           4.1930     0.8710     1.4500 h1         1 LEW       0.062700
     37 H6           5.8080     2.2290     0.1390 h1         1 LEW       0.041200
     38 H6A          4.6350     2.3640    -1.1720 h1         1 LEW       0.041200
     39 HO6          4.6110     4.1270     0.4410 ho         1 LEW       0.507000
     40 H4           4.7820    -0.1110    -1.3820 h1         1 LEW       0.060700
     41 HO4          6.5730    -1.0320    -0.2090 ho         1 LEW       0.528000
     42 H3           4.1170    -1.6670     1.1500 h1         1 LEW       0.052700
     43 HO3          4.2950    -3.4090    -0.3200 ho         1 LEW       0.467000
     44 H2           2.5070    -1.2500    -1.4040 h1         1 LEW       0.084700
     45 HO2          1.1700    -2.7130    -0.4850 ho         1 LEW       0.526000
@<TRIPOS>BOND
     1     1     2 ar  
     2     1     6 ar  
     3     1    10 ar  
     4     2     3 ar  
     5     2    27 1   
     6     3     4 ar  
     7     3    28 1   
     8     4     5 ar  
     9     4    29 1   
    10     5     6 ar  
    11     5    30 1   
    12     6     7 ar  
    13     7     8 ar  
    14     7    31 1   
    15     8     9 ar  
    16     8    32 1   
    17     9    10 ar  
    18     9    33 1   
    19    10    11 1   
    20    11    12 2   
    21    11    13 1   
    22    12    15 1   
    23    12    34 1   
    24    13    14 2   
    25    14    15 1   
    26    15    16 1   
    27    16    17 1   
    28    16    25 1   
    29    16    35 1   
    30    17    18 1   
    31    18    19 1   
    32    18    21 1   
    33    18    36 1   
    34    19    20 1   
    35    19    37 1   
    36    19    38 1   
    37    20    39 1   
    38    21    22 1   
    39    21    23 1   
    40    21    40 1   
    41    22    41 1   
    42    23    24 1   
    43    23    25 1   
    44    23    42 1   
    45    24    43 1   
    46    25    26 1   
    47    25    44 1   
    48    26    45 1   
@<TRIPOS>SUBSTRUCTURE
     1 LEW         1 TEMP              0 ****  ****    0 ROOT
