@<TRIPOS>MOLECULE
LEX
   25    24     1     0     0
SMALL
bcc


@<TRIPOS>ATOM
      1 C           -1.4600     0.2470     0.1580 c          1 LEX       0.524100
      2 N            0.2280     1.9880    -0.4280 n8         1 LEX      -0.874800
      3 O           -2.0180     0.9330     0.9810 o          1 LEX      -0.490100
      4 CA          -0.0660     0.5730    -0.3620 c3         1 LEX       0.067500
      5 CB           0.9490    -0.1440     0.5400 c3         1 LEX      -0.061400
      6 CG           2.3940    -0.0930     0.0430 c3         1 LEX      -0.057700
      7 CAC         -2.0910    -0.9900    -0.4230 c3         1 LEX       0.034400
      8 CD1          3.3240    -0.6660     1.1090 c3         1 LEX      -0.088100
      9 CD2          2.5700    -0.8460    -1.2720 c3         1 LEX      -0.088100
     10 HN          -0.3910     2.4400    -1.0900 hn         1 LEX       0.350800
     11 HA           0.0150     0.1640    -1.3750 h1         1 LEX       0.068700
     12 HB           0.8910     0.3020     1.5390 hc         1 LEX       0.045200
     13 HBA          0.6600    -1.1940     0.6610 hc         1 LEX       0.045200
     14 HG           2.6590     0.9560    -0.1210 hc         1 LEX       0.069700
     15 HAC         -1.3490    -1.8020    -0.4010 h1         1 LEX       0.036200
     16 OXT         -3.2660    -1.3040     0.2600 oh         1 LEX      -0.565800
     17 HACA        -2.2580    -0.7750    -1.4900 h1         1 LEX       0.036200
     18 HD1          4.3660    -0.6290     0.7860 hc         1 LEX       0.031533
     19 HD1A         3.2490    -0.1130     2.0470 hc         1 LEX       0.031533
     20 HD1B         3.0800    -1.7110     1.3180 hc         1 LEX       0.031533
     21 HD2          1.9870    -0.4110    -2.0850 hc         1 LEX       0.031533
     22 HD2A         3.6150    -0.8370    -1.5890 hc         1 LEX       0.031533
     23 HD2B         2.2660    -1.8900    -1.1650 hc         1 LEX       0.031533
     24 HXT         -3.6780    -2.0490    -0.1870 ho         1 LEX       0.407000
     25 H2           0.0420     2.4190     0.4700 hn         1 LEX       0.350800
@<TRIPOS>BOND
     1     1     3 2   
     2     1     4 1   
     3     1     7 1   
     4     2     4 1   
     5     2    10 1   
     6     2    25 1   
     7     4     5 1   
     8     4    11 1   
     9     5     6 1   
    10     5    12 1   
    11     5    13 1   
    12     6     8 1   
    13     6     9 1   
    14     6    14 1   
    15     7    15 1   
    16     7    16 1   
    17     7    17 1   
    18     8    18 1   
    19     8    19 1   
    20     8    20 1   
    21     9    21 1   
    22     9    22 1   
    23     9    23 1   
    24    16    24 1   
@<TRIPOS>SUBSTRUCTURE
     1 LEX         1 TEMP              0 ****  ****    0 ROOT
