@<TRIPOS>MOLECULE
LEX
   25    24     1     0     0
SMALL
No Charge or Current Charge


@<TRIPOS>ATOM
      1 C           -1.5570     0.3240     0.1450 c          1 LEX       0.524100
      2 N            0.2610     2.0870    -0.3950 n8         1 LEX      -0.874800
      3 O           -2.2650     1.1910     0.6560 o          1 LEX      -0.490100
      4 CA          -0.0930     0.6290    -0.3330 c3         1 LEX       0.067500
      5 CB           0.9470    -0.1500     0.5240 c3         1 LEX      -0.061400
      6 CG           2.4200    -0.1070     0.0200 c3         1 LEX      -0.057700
      7 CAC         -2.0760    -1.1170    -0.1330 c3         1 LEX       0.034400
      8 CD1          3.3690    -0.7840     1.0360 c3         1 LEX      -0.088100
      9 CD2          2.5930    -0.7320    -1.3860 c3         1 LEX      -0.088100
     10 HN          -0.4180     2.5780    -0.9880 hn         1 LEX       0.350800
     11 HA          -0.0420     0.2400    -1.3590 h1         1 LEX       0.068700
     12 HB           0.9090     0.2380     1.5500 hc         1 LEX       0.045200
     13 HBA          0.6430    -1.2030     0.5880 hc         1 LEX       0.045200
     14 HG           2.7280     0.9440    -0.0480 hc         1 LEX       0.069700
     15 HAC         -1.7820    -1.7440     0.7190 h1         1 LEX       0.036200
     16 OXT         -3.5050    -1.1840    -0.3430 oh         1 LEX      -0.565800
     17 HACA        -1.5490    -1.4990    -1.0170 h1         1 LEX       0.036200
     18 HD1          4.4120    -0.7050     0.7060 hc         1 LEX       0.031533
     19 HD1A         3.2910    -0.3050     2.0190 hc         1 LEX       0.031533
     20 HD1B         3.1250    -1.8470     1.1510 hc         1 LEX       0.031533
     21 HD2          2.0330    -0.1700    -2.1420 hc         1 LEX       0.031533
     22 HD2A         3.6480    -0.7240    -1.6850 hc         1 LEX       0.031533
     23 HD2B         2.2430    -1.7720    -1.3980 hc         1 LEX       0.031533
     24 HXT         -3.7410    -2.1260    -0.4930 ho         1 LEX       0.407000
     25 H2           0.1220     2.5060     0.5310 hn         1 LEX       0.350800
@<TRIPOS>BOND
     1     1     3 2   
     2     1     4 1   
     3     1     7 1   
     4     2     4 1   
     5     2    10 1   
     6     2    25 1   
     7     4     5 1   
     8     4    11 1   
     9     5     6 1   
    10     5    12 1   
    11     5    13 1   
    12     6     8 1   
    13     6     9 1   
    14     6    14 1   
    15     7    15 1   
    16     7    16 1   
    17     7    17 1   
    18     8    18 1   
    19     8    19 1   
    20     8    20 1   
    21     9    21 1   
    22     9    22 1   
    23     9    23 1   
    24    16    24 1   
@<TRIPOS>SUBSTRUCTURE
     1 LEX         1 TEMP              0 ****  ****    0 ROOT
