@<TRIPOS>MOLECULE
LEY
   35    36     1     0     0
SMALL
bcc


@<TRIPOS>ATOM
      1 N1          -2.3490     0.1580    -0.0810 na         1 LEY      -0.286900
      2 N3           0.1630    -1.2680     0.2670 ns         1 LEY      -0.577900
      3 C4          -3.6700     0.4200    -0.1190 cc         1 LEY       0.429800
      4 C5          -2.1810    -1.1990    -0.2120 cc         1 LEY      -0.310200
      5 C6          -3.4530    -1.6960    -0.3150 cd         1 LEY       0.382200
      6 C7          -0.9090    -1.9310    -0.2140 c          1 LEY       0.715700
      7 C8           1.4820    -1.8640     0.3300 c3         1 LEY       0.147300
      8 C10          2.6530     0.0450    -0.8140 ca         1 LEY      -0.089000
      9 C13          4.4440     0.3140     1.2920 ca         1 LEY      -0.172500
     10 C1          -3.6630     2.6080     1.0990 c3         1 LEY      -0.090600
     11 C11          3.6360     1.0190    -0.8750 ca         1 LEY      -0.172500
     12 C12          4.5180     1.1340     0.1860 ca         1 LEY       0.142900
     13 C14          3.4480    -0.6550     1.3330 ca         1 LEY      -0.089000
     14 C2          -4.2310     1.8040    -0.0700 c3         1 LEY      -0.099000
     15 C3          -4.0100     2.5270    -1.4010 c3         1 LEY      -0.090600
     16 C9           2.5470    -0.8030     0.2860 ca         1 LEY      -0.129300
     17 N2          -4.3630    -0.6910    -0.2500 nd         1 LEY      -0.684000
     18 O1          -0.8530    -3.0750    -0.6450 o          1 LEY      -0.584100
     19 H1          -1.6180     0.8520    -0.0480 hn         1 LEY       0.300700
     20 H2           0.0200    -0.4420     0.8260 hn         1 LEY       0.307500
     21 H3          -3.7450    -2.7310    -0.4130 h4         1 LEY       0.054100
     22 H4           1.5940    -2.4720     1.2330 h1         1 LEY       0.063700
     23 H5           1.5890    -2.5390    -0.5190 h1         1 LEY       0.063700
     24 H6           1.9600    -0.0540    -1.6410 ha         1 LEY       0.139500
     25 H7           5.1440     0.4280     2.1100 ha         1 LEY       0.153000
     26 H8          -3.8260     2.1030     2.0510 hc         1 LEY       0.039533
     27 H9          -2.5900     2.7820     0.9870 hc         1 LEY       0.039533
     28 H10         -4.1440     3.5850     1.1510 hc         1 LEY       0.039533
     29 H11          3.7200     1.6750    -1.7320 ha         1 LEY       0.153000
     30 H12          3.3790    -1.3010     2.2000 ha         1 LEY       0.139500
     31 H13         -5.3060     1.6830     0.0800 hc         1 LEY       0.086700
     32 H14         -2.9470     2.6800    -1.5990 hc         1 LEY       0.039533
     33 H15         -4.4320     1.9670    -2.2350 hc         1 LEY       0.039533
     34 H16         -4.4870     3.5080    -1.3790 hc         1 LEY       0.039533
     35 F1           5.4740     2.0760     0.1340 f          1 LEY      -0.140900
@<TRIPOS>BOND
     1     1     3 1   
     2     1     4 1   
     3     1    19 1   
     4     2     6 1   
     5     2     7 1   
     6     2    20 1   
     7     3    14 1   
     8     3    17 2   
     9     4     5 2   
    10     4     6 1   
    11     5    17 1   
    12     5    21 1   
    13     6    18 2   
    14     7    16 1   
    15     7    22 1   
    16     7    23 1   
    17     8    11 ar  
    18     8    16 ar  
    19     8    24 1   
    20     9    12 ar  
    21     9    13 ar  
    22     9    25 1   
    23    10    14 1   
    24    10    26 1   
    25    10    27 1   
    26    10    28 1   
    27    11    12 ar  
    28    11    29 1   
    29    12    35 1   
    30    13    16 ar  
    31    13    30 1   
    32    14    15 1   
    33    14    31 1   
    34    15    32 1   
    35    15    33 1   
    36    15    34 1   
@<TRIPOS>SUBSTRUCTURE
     1 LEY         1 TEMP              0 ****  ****    0 ROOT
