@<TRIPOS>MOLECULE
LEY
   35    36     1     0     0
SMALL
No Charge or Current Charge


@<TRIPOS>ATOM
      1 N1          -2.3370     0.2060    -0.0300 na         1 LEY      -0.286500
      2 N3           0.2240    -1.3090    -0.0150 ns         1 LEY      -0.510900
      3 C4          -3.6890     0.4460    -0.0600 cc         1 LEY       0.429800
      4 C5          -2.1520    -1.1700    -0.0800 cc         1 LEY      -0.295600
      5 C6          -3.4140    -1.6990    -0.1400 cd         1 LEY       0.316900
      6 C7          -0.9470    -2.0190    -0.0790 c          1 LEY       0.648700
      7 C8           1.5520    -1.9130    -0.0000 c3         1 LEY       0.147300
      8 C10          3.1660    -0.2950    -1.1080 ca         1 LEY      -0.071000
      9 C13          4.0910     0.5980     1.3930 ca         1 LEY      -0.154500
     10 C1          -4.0020     2.5640     1.2980 c3         1 LEY      -0.090600
     11 C11          4.1610     0.6970    -1.0380 ca         1 LEY      -0.154500
     12 C12          4.6210     1.1390     0.2120 ca         1 LEY       0.178000
     13 C14          3.0960    -0.3930     1.3260 ca         1 LEY      -0.071000
     14 C2          -4.3140     1.8210    -0.0220 c3         1 LEY      -0.099000
     15 C3          -3.9260     2.6690    -1.2560 c3         1 LEY      -0.090600
     16 C9           2.6310    -0.8450     0.0740 ca         1 LEY      -0.129300
     17 N2          -4.3610    -0.6920    -0.1270 nd         1 LEY      -0.684000
     18 O1          -0.9720    -3.2400    -0.1300 o          1 LEY      -0.584100
     19 H1          -1.6290     0.9280     0.0210 hn         1 LEY       0.351000
     20 H2           0.1530    -0.3020     0.0240 hn         1 LEY       0.307500
     21 H3          -3.6980    -2.7450    -0.1910 h4         1 LEY       0.054100
     22 H4           1.6310    -2.5850     0.8640 h1         1 LEY       0.063700
     23 H5           1.6830    -2.5140    -0.9100 h1         1 LEY       0.063700
     24 H6           2.8110    -0.6340    -2.0800 ha         1 LEY       0.121500
     25 H7           4.4510     0.9480     2.3570 ha         1 LEY       0.135000
     26 H8          -4.3210     1.9660     2.1610 hc         1 LEY       0.039533
     27 H9          -2.9270     2.7600     1.3950 hc         1 LEY       0.039533
     28 H10         -4.5300     3.5240     1.3370 hc         1 LEY       0.039533
     29 H11          4.5760     1.1220    -1.9490 ha         1 LEY       0.135000
     30 H12          2.6860    -0.8090     2.2440 ha         1 LEY       0.121500
     31 H13         -5.4020     1.6870    -0.0600 hc         1 LEY       0.086700
     32 H14         -2.8480     2.8700    -1.2730 hc         1 LEY       0.039533
     33 H15         -4.1910     2.1440    -2.1830 hc         1 LEY       0.039533
     34 H16         -4.4530     3.6300    -1.2480 hc         1 LEY       0.039533
     35 F1           5.5760     2.0920     0.2780 f          1 LEY      -0.176000
@<TRIPOS>BOND
     1     1     3 1   
     2     1     4 1   
     3     1    19 1   
     4     2     6 1   
     5     2     7 1   
     6     2    20 1   
     7     3    14 1   
     8     3    17 2   
     9     4     5 2   
    10     4     6 1   
    11     5    17 1   
    12     5    21 1   
    13     6    18 2   
    14     7    16 1   
    15     7    22 1   
    16     7    23 1   
    17     8    11 ar  
    18     8    16 ar  
    19     8    24 1   
    20     9    12 ar  
    21     9    13 ar  
    22     9    25 1   
    23    10    14 1   
    24    10    26 1   
    25    10    27 1   
    26    10    28 1   
    27    11    12 ar  
    28    11    29 1   
    29    12    35 1   
    30    13    16 ar  
    31    13    30 1   
    32    14    15 1   
    33    14    31 1   
    34    15    32 1   
    35    15    33 1   
    36    15    34 1   
@<TRIPOS>SUBSTRUCTURE
     1 LEY         1 TEMP              0 ****  ****    0 ROOT
