@<TRIPOS>MOLECULE
LEZ
   49    52     1     0     0
SMALL
bcc


@<TRIPOS>ATOM
      1 C1          17.1020    19.2760   -15.1430 ca         1 LEZ      -0.111000
      2 C2          15.9790    18.9310   -14.3720 ca         1 LEZ      -0.160000
      3 C3          15.4500    17.6550   -14.4150 ca         1 LEZ      -0.081000
      4 C11         13.0010    11.2860   -15.9020 c6         1 LEZ      -0.077400
      5 C12         13.6460    12.3280   -14.9840 c6         1 LEZ       0.169800
      6 C14         13.6450    13.6720   -16.9630 c6         1 LEZ       0.169800
      7 C15         13.7070    12.4970   -17.9420 c6         1 LEZ      -0.077400
      8 C16         13.7840    11.1570   -17.2020 c6         1 LEZ       0.183500
      9 C18         13.6540     8.7660   -17.6530 c3         1 LEZ       0.207100
     10 C19         12.8720     7.7060   -18.3840 ca         1 LEZ      -0.079300
     11 C20         13.4950     6.5630   -18.8720 ca         1 LEZ      -0.127000
     12 C21         12.7580     5.5710   -19.5060 ca         1 LEZ      -0.123000
     13 C22         11.3870     5.7050   -19.6680 ca         1 LEZ      -0.121000
     14 C23         10.7760     6.8530   -19.1830 ca         1 LEZ       0.024400
     15 C24         11.4960     7.8510   -18.5510 ca         1 LEZ      -0.098000
     16 C4          16.0500    16.6990   -15.2440 ca         1 LEZ      -0.095800
     17 C5          17.1800    17.0670   -16.0100 ca         1 LEZ      -0.048200
     18 C6          17.7160    18.3540   -15.9690 ca         1 LEZ      -0.147000
     19 C7          15.7770    15.3230   -15.5310 cc         1 LEZ      -0.149400
     20 C8          16.7240    14.9270   -16.4320 cd         1 LEZ      -0.087100
     21 N9          17.5640    15.9690   -16.7190 na         1 LEZ      -0.178400
     22 C10         14.6910    14.4860   -14.9350 c3         1 LEZ       0.249000
     23 N13         14.3660    13.3370   -15.7500 n3         1 LEZ      -0.734600
     24 N17         13.2430    10.0990   -18.0430 n7         1 LEZ      -0.820200
     25 CL           9.0590     7.0420   -19.3750 cl         1 LEZ      -0.119400
     26 H1          17.4920    20.2840   -15.0890 ha         1 LEZ       0.127000
     27 H2          15.5250    19.6780   -13.7350 ha         1 LEZ       0.127000
     28 H3          14.5830    17.4030   -13.8170 ha         1 LEZ       0.129000
     29 H4          11.9750    11.5710   -16.1500 hc         1 LEZ       0.047200
     30 H5          12.9340    10.3340   -15.3710 hc         1 LEZ       0.047200
     31 H6          12.8630    12.7830   -14.3540 h1         1 LEZ       0.035200
     32 H7          14.3530    11.8450   -14.3030 h1         1 LEZ       0.035200
     33 H8          14.0940    14.5550   -17.4170 h1         1 LEZ       0.035200
     34 H9          12.5970    13.9400   -16.7440 h1         1 LEZ       0.035200
     35 H10         14.5690    12.5990   -18.6060 hc         1 LEZ       0.047200
     36 H11         12.8130    12.5060   -18.5710 hc         1 LEZ       0.047200
     37 H12         14.8400    10.9620   -16.9520 h1         1 LEZ       0.034700
     38 H13         13.4680     8.6490   -16.5810 h1         1 LEZ       0.037700
     39 H14         14.7300     8.5870   -17.7920 h1         1 LEZ       0.037700
     40 H15         14.5660     6.4440   -18.7580 ha         1 LEZ       0.131000
     41 H16         13.2530     4.6870   -19.8860 ha         1 LEZ       0.134000
     42 H17         10.8100     4.9370   -20.1630 ha         1 LEZ       0.146000
     43 H18         11.0040     8.7430   -18.1880 ha         1 LEZ       0.163000
     44 H19         18.5820    18.6230   -16.5610 ha         1 LEZ       0.130000
     45 H20         16.8550    13.9670   -16.9050 h4         1 LEZ       0.172000
     46 H21         18.3310    15.9290   -17.3690 hn         1 LEZ       0.298700
     47 H22         13.8040    15.1140   -14.7370 h1         1 LEZ       0.035700
     48 H23         15.0110    14.1210   -13.9530 h1         1 LEZ       0.035700
     49 H25         13.5290    10.2560   -19.0030 hn         1 LEZ       0.360800
@<TRIPOS>BOND
     1     1     2 ar  
     2     1    18 ar  
     3     1    26 1   
     4     2     3 ar  
     5     2    27 1   
     6     3    16 ar  
     7     3    28 1   
     8     4     5 1   
     9     4     8 1   
    10     4    29 1   
    11     4    30 1   
    12     5    23 1   
    13     5    31 1   
    14     5    32 1   
    15     6     7 1   
    16     6    23 1   
    17     6    33 1   
    18     6    34 1   
    19     7     8 1   
    20     7    35 1   
    21     7    36 1   
    22     8    24 1   
    23     8    37 1   
    24     9    10 1   
    25     9    24 1   
    26     9    38 1   
    27     9    39 1   
    28    10    11 ar  
    29    10    15 ar  
    30    11    12 ar  
    31    11    40 1   
    32    12    13 ar  
    33    12    41 1   
    34    13    14 ar  
    35    13    42 1   
    36    14    15 ar  
    37    14    25 1   
    38    15    43 1   
    39    16    17 ar  
    40    16    19 1   
    41    17    18 ar  
    42    17    21 1   
    43    18    44 1   
    44    19    20 2   
    45    19    22 1   
    46    20    21 1   
    47    20    45 1   
    48    21    46 1   
    49    22    23 1   
    50    22    47 1   
    51    22    48 1   
    52    24    49 1   
@<TRIPOS>SUBSTRUCTURE
     1 LEZ         1 TEMP              0 ****  ****    0 ROOT
