@<TRIPOS>MOLECULE
LEZ
   49    52     1     0     0
SMALL
No Charge or Current Charge


@<TRIPOS>ATOM
      1 C1          16.5140    18.9130   -16.6240 ca         1 LEZ      -0.093000
      2 C2          15.2200    18.5490   -16.1810 ca         1 LEZ      -0.142000
      3 C3          15.0010    17.2910   -15.5800 ca         1 LEZ      -0.063000
      4 C11         13.2630    11.0800   -15.3910 c6         1 LEZ      -0.077400
      5 C12         13.5680    12.3400   -14.5340 c6         1 LEZ       0.169800
      6 C14         14.0630    13.7490   -16.4930 c6         1 LEZ       0.169800
      7 C15         13.3690    12.6660   -17.3660 c6         1 LEZ      -0.077400
      8 C16         13.6950    11.2380   -16.8770 c6         1 LEZ       0.183500
      9 C18         13.4220     8.8180   -17.5380 c3         1 LEZ       0.207100
     10 C19         12.7230     7.9290   -18.5570 ca         1 LEZ      -0.079300
     11 C20         13.4350     7.3930   -19.6500 ca         1 LEZ      -0.109000
     12 C21         12.7850     6.5700   -20.5870 ca         1 LEZ      -0.105000
     13 C22         11.4180     6.2790   -20.4370 ca         1 LEZ      -0.103000
     14 C23         10.7040     6.8120   -19.3510 ca         1 LEZ       0.116000
     15 C24         11.3530     7.6330   -18.4140 ca         1 LEZ      -0.080000
     16 C4          16.0990    16.4300   -15.4390 ca         1 LEZ      -0.095800
     17 C5          17.3490    16.7790   -15.8680 ca         1 LEZ      -0.048200
     18 C6          17.5960    18.0210   -16.4690 ca         1 LEZ      -0.129000
     19 C7          16.1800    15.1070   -14.8820 cc         1 LEZ      -0.149400
     20 C8          17.5120    14.7210   -15.0130 cd         1 LEZ      -0.137100
     21 N9          18.2530    15.7610   -15.6250 na         1 LEZ      -0.228700
     22 C10         15.0500    14.3020   -14.2860 c3         1 LEZ       0.249000
     23 N13         14.5650    13.2280   -15.1850 n3         1 LEZ      -0.734600
     24 N17         13.0540    10.2300   -17.7520 n7         1 LEZ      -0.875400
     25 Cl           8.9920     6.4500   -19.1650 cl         1 LEZ      -0.211000
     26 H1          16.6750    19.8850   -17.0870 ha         1 LEZ       0.109000
     27 H2          14.3900    19.2410   -16.3060 ha         1 LEZ       0.109000
     28 H3          14.0090    17.0020   -15.2400 ha         1 LEZ       0.111000
     29 H4          12.1890    10.8590   -15.3260 hc         1 LEZ       0.047200
     30 H5          13.7830    10.2170   -14.9560 hc         1 LEZ       0.047200
     31 H6          12.6310    12.8950   -14.3720 h1         1 LEZ       0.035200
     32 H7          13.9200    12.0160   -13.5440 h1         1 LEZ       0.035200
     33 H8          14.9040    14.1660   -17.0660 h1         1 LEZ       0.035200
     34 H9          13.3520    14.5740   -16.3340 h1         1 LEZ       0.035200
     35 H10         13.6710    12.7930   -18.4150 hc         1 LEZ       0.047200
     36 H11         12.2820    12.8220   -17.3350 hc         1 LEZ       0.047200
     37 H12         14.7870    11.1070   -16.9390 h1         1 LEZ       0.034700
     38 H13         13.1370     8.4900   -16.5290 h1         1 LEZ       0.037700
     39 H14         14.5100     8.6880   -17.6290 h1         1 LEZ       0.037700
     40 H15         14.4930     7.6140   -19.7730 ha         1 LEZ       0.113000
     41 H16         13.3400     6.1590   -21.4280 ha         1 LEZ       0.116000
     42 H17         10.9120     5.6440   -21.1600 ha         1 LEZ       0.128000
     43 H18         10.7910     8.0450   -17.5790 ha         1 LEZ       0.145000
     44 H19         18.5940    18.2920   -16.8080 ha         1 LEZ       0.112000
     45 H20         17.9770    13.7830   -14.7180 h4         1 LEZ       0.222000
     46 H21         19.2440    15.7590   -15.8470 hn         1 LEZ       0.349000
     47 H22         14.2250    14.9780   -14.0250 h1         1 LEZ       0.035700
     48 H23         15.4110    13.8630   -13.3460 h1         1 LEZ       0.035700
     49 H25         13.2920    10.4560   -18.7240 hn         1 LEZ       0.416000
@<TRIPOS>BOND
     1     1     2 ar  
     2     1    18 ar  
     3     1    26 1   
     4     2     3 ar  
     5     2    27 1   
     6     3    16 ar  
     7     3    28 1   
     8     4     5 1   
     9     4     8 1   
    10     4    29 1   
    11     4    30 1   
    12     5    23 1   
    13     5    31 1   
    14     5    32 1   
    15     6     7 1   
    16     6    23 1   
    17     6    33 1   
    18     6    34 1   
    19     7     8 1   
    20     7    35 1   
    21     7    36 1   
    22     8    24 1   
    23     8    37 1   
    24     9    10 1   
    25     9    24 1   
    26     9    38 1   
    27     9    39 1   
    28    10    11 ar  
    29    10    15 ar  
    30    11    12 ar  
    31    11    40 1   
    32    12    13 ar  
    33    12    41 1   
    34    13    14 ar  
    35    13    42 1   
    36    14    15 ar  
    37    14    25 1   
    38    15    43 1   
    39    16    17 ar  
    40    16    19 1   
    41    17    18 ar  
    42    17    21 1   
    43    18    44 1   
    44    19    20 2   
    45    19    22 1   
    46    20    21 1   
    47    20    45 1   
    48    21    46 1   
    49    22    23 1   
    50    22    47 1   
    51    22    48 1   
    52    24    49 1   
@<TRIPOS>SUBSTRUCTURE
     1 LEZ         1 TEMP              0 ****  ****    0 ROOT
