@<TRIPOS>MOLECULE
LF0
   56    59     1     0     0
SMALL
bcc


@<TRIPOS>ATOM
      1 C1          -0.4890    -0.9540    -0.1670 cp         1 LF0      -0.020000
      2 C2          -1.6220    -0.1720    -0.2030 ca         1 LF0      -0.104600
      3 C3          -2.8820    -0.7910     0.0770 ca         1 LF0       0.486600
      4 N1          -2.9970    -2.0560     0.3860 nb         1 LF0      -0.711000
      5 C5          -1.8960    -2.8400     0.4350 ca         1 LF0       0.398600
      6 C6          -0.6060    -2.3400     0.1510 ca         1 LF0      -0.132300
      7 C7           0.8580    -0.4030    -0.4540 cp         1 LF0      -0.057000
      8 C8           1.2020     0.0460    -1.7290 ca         1 LF0      -0.060000
      9 C9           2.4670     0.5450    -1.9800 ca         1 LF0      -0.167000
     10 C10          3.4150     0.6110    -0.9600 ca         1 LF0       0.129100
     11 C11          3.0970     0.1610     0.3240 ca         1 LF0      -0.179300
     12 C12          1.8210    -0.3440     0.5470 ca         1 LF0      -0.091000
     13 C13          0.4860    -3.2390     0.1740 ca         1 LF0      -0.105000
     14 C14          0.3020    -4.5590     0.4910 ca         1 LF0      -0.155000
     15 C15         -0.9830    -5.0470     0.7950 ca         1 LF0      -0.146000
     16 C16         -2.0610    -4.2040     0.7640 ca         1 LF0      -0.169300
     17 C17         -4.1730    -0.0250     0.0330 c3         1 LF0      -0.143400
     18 C18         -1.5570     1.3010    -0.5270 c3         1 LF0       0.027400
     19 C19         -2.0710     1.6040    -1.9640 c          1 LF0       0.932600
     20 O20         -1.9610     0.6740    -2.7880 o          1 LF0      -0.814300
     21 O21         -2.4950     2.7500    -2.1740 o          1 LF0      -0.814300
     22 O22         -2.2500     2.0660     0.4230 os         1 LF0      -0.390600
     23 C23         -1.5010     2.8610     1.3350 c3         1 LF0       0.169800
     24 C24         -0.7170     3.9500     0.6010 c3         1 LF0      -0.101100
     25 C25         -2.5520     3.5090     2.2290 c3         1 LF0      -0.101100
     26 C26         -0.5620     2.0050     2.1840 c3         1 LF0      -0.101100
     27 O27          4.6290     1.1030    -1.2880 os         1 LF0      -0.327900
     28 C4           5.5280     1.4010    -0.2240 c6         1 LF0       0.142400
     29 C20          5.5220     0.3220     0.8370 c6         1 LF0      -0.112400
     30 C21          4.1220     0.2060     1.4240 c6         1 LF0      -0.017100
     31 H1           0.4660     0.0180    -2.5210 ha         1 LF0       0.188000
     32 H2           2.7310     0.8900    -2.9730 ha         1 LF0       0.143000
     33 H3           1.5770    -0.6990     1.5420 ha         1 LF0       0.126000
     34 H4           1.4780    -2.8820    -0.0700 ha         1 LF0       0.131000
     35 H5           1.1490    -5.2330     0.5030 ha         1 LF0       0.114000
     36 H6          -1.1160    -6.0910     1.0450 ha         1 LF0       0.114000
     37 H7          -3.0590    -4.5620     0.9840 ha         1 LF0       0.134000
     38 H8          -4.2510     0.6170    -0.8430 hc         1 LF0       0.056700
     39 H9          -5.0050    -0.7250     0.0210 hc         1 LF0       0.056700
     40 H10         -4.2770     0.6190     0.9060 hc         1 LF0       0.056700
     41 H11         -0.4970     1.5830    -0.5480 h1         1 LF0       0.038700
     42 H13         -1.3820     4.5510    -0.0180 hc         1 LF0       0.033367
     43 H14         -0.2230     4.6080     1.3170 hc         1 LF0       0.033367
     44 H15          0.0620     3.5400    -0.0450 hc         1 LF0       0.033367
     45 H16         -3.2410     4.1230     1.6460 hc         1 LF0       0.033367
     46 H17         -3.1340     2.7550     2.7620 hc         1 LF0       0.033367
     47 H18         -2.0780     4.1540     2.9710 hc         1 LF0       0.033367
     48 H19         -0.0660     2.6180     2.9370 hc         1 LF0       0.033367
     49 H20         -1.1140     1.2170     2.7010 hc         1 LF0       0.033367
     50 H21          0.2180     1.5340     1.5850 hc         1 LF0       0.033367
     51 H22          6.5080     1.5080    -0.6850 h1         1 LF0       0.044700
     52 H23          5.2580     2.3660     0.2200 h1         1 LF0       0.044700
     53 H24          5.8350    -0.6290     0.4000 hc         1 LF0       0.046700
     54 H25          6.2480     0.5760     1.6110 hc         1 LF0       0.046700
     55 H26          3.9290     1.0620     2.0780 hc         1 LF0       0.045200
     56 H27          4.0350    -0.6830     2.0500 hc         1 LF0       0.045200
@<TRIPOS>BOND
     1     1     2 ar  
     2     1     6 ar  
     3     1     7 1   
     4     2     3 ar  
     5     2    18 1   
     6     3     4 ar  
     7     3    17 1   
     8     4     5 ar  
     9     5     6 ar  
    10     5    16 ar  
    11     6    13 ar  
    12     7     8 ar  
    13     7    12 ar  
    14     8     9 ar  
    15     8    31 1   
    16     9    10 ar  
    17     9    32 1   
    18    10    11 ar  
    19    10    27 1   
    20    11    12 ar  
    21    11    30 1   
    22    12    33 1   
    23    13    14 ar  
    24    13    34 1   
    25    14    15 ar  
    26    14    35 1   
    27    15    16 ar  
    28    15    36 1   
    29    16    37 1   
    30    17    38 1   
    31    17    39 1   
    32    17    40 1   
    33    18    19 1   
    34    18    22 1   
    35    18    41 1   
    36    19    20 1   
    37    19    21 1   
    38    22    23 1   
    39    23    24 1   
    40    23    25 1   
    41    23    26 1   
    42    24    42 1   
    43    24    43 1   
    44    24    44 1   
    45    25    45 1   
    46    25    46 1   
    47    25    47 1   
    48    26    48 1   
    49    26    49 1   
    50    26    50 1   
    51    27    28 1   
    52    28    29 1   
    53    28    51 1   
    54    28    52 1   
    55    29    30 1   
    56    29    53 1   
    57    29    54 1   
    58    30    55 1   
    59    30    56 1   
@<TRIPOS>SUBSTRUCTURE
     1 LF0         1 TEMP              0 ****  ****    0 ROOT
