@<TRIPOS>MOLECULE
LF0
   56    59     1     0     0
SMALL
No Charge or Current Charge


@<TRIPOS>ATOM
      1 C1          -0.5430    -1.1180    -0.1890 cp         1 LF0      -0.020000
      2 C2          -1.7000    -0.2830    -0.1980 ca         1 LF0      -0.039300
      3 C3          -2.9650    -0.8910     0.0290 ca         1 LF0       0.421300
      4 N1          -3.1170    -2.2180     0.2500 nb         1 LF0      -0.711000
      5 C5          -2.0310    -3.0170     0.2620 ca         1 LF0       0.268000
      6 C6          -0.7250    -2.5100     0.0460 ca         1 LF0      -0.067000
      7 C7           0.8230    -0.5570    -0.4120 cp         1 LF0      -0.057000
      8 C8           1.2390    -0.1510    -1.7020 ca         1 LF0      -0.042000
      9 C9           2.5190     0.3930    -1.9030 ca         1 LF0      -0.149000
     10 C10          3.4000     0.5430    -0.8210 ca         1 LF0       0.129100
     11 C11          3.0120     0.1210     0.4710 ca         1 LF0      -0.179300
     12 C12          1.7290    -0.4220     0.6650 ca         1 LF0      -0.073000
     13 C13          0.3740    -3.4020     0.0550 ca         1 LF0      -0.087000
     14 C14          0.1820    -4.7730     0.2880 ca         1 LF0      -0.137000
     15 C15         -1.1070    -5.2710     0.5090 ca         1 LF0      -0.128000
     16 C16         -2.2040    -4.3950     0.4940 ca         1 LF0      -0.086000
     17 C17         -4.2880    -0.1310     0.0360 c3         1 LF0      -0.143400
     18 C18         -1.5800     1.2370    -0.4400 c3         1 LF0       0.050600
     19 C19         -2.3430     1.6720    -1.7430 c          1 LF0       0.722000
     20 O20         -2.0160     1.1350    -2.7940 o          1 LF0      -0.709000
     21 O21         -3.2440     2.4990    -1.6790 o          1 LF0      -0.709000
     22 O22         -2.0030     1.9300     0.7760 os         1 LF0      -0.437000
     23 C23         -1.1970     3.0220     1.2920 c3         1 LF0       0.193000
     24 C24         -1.0710     4.1410     0.2250 c3         1 LF0      -0.101100
     25 C25         -1.9730     3.5380     2.5250 c3         1 LF0      -0.101100
     26 C26          0.1880     2.4740     1.7230 c3         1 LF0      -0.101100
     27 O27          4.6480     1.0820    -1.0560 os         1 LF0      -0.351100
     28 C4           5.4470     1.5230     0.0630 c6         1 LF0       0.165600
     29 C20          5.4200     0.4780     1.1950 c6         1 LF0      -0.112400
     30 C21          3.9670     0.2550     1.6590 c6         1 LF0      -0.017100
     31 H1           0.5580    -0.2550    -2.5450 ha         1 LF0       0.170000
     32 H2           2.8260     0.7070    -2.8970 ha         1 LF0       0.125000
     33 H3           1.4210    -0.7380     1.6600 ha         1 LF0       0.108000
     34 H4           1.3860    -3.0460    -0.1200 ha         1 LF0       0.113000
     35 H5           1.0350    -5.4470     0.2940 ha         1 LF0       0.096000
     36 H6          -1.2600    -6.3330     0.6890 ha         1 LF0       0.096000
     37 H7          -3.2030    -4.7880     0.6620 ha         1 LF0       0.116000
     38 H8          -4.5760     0.1580    -0.9800 hc         1 LF0       0.056700
     39 H9          -5.1050    -0.7400     0.4400 hc         1 LF0       0.056700
     40 H10         -4.2390     0.7720     0.6510 hc         1 LF0       0.056700
     41 H11         -0.5360     1.4790    -0.6540 h1         1 LF0       0.038700
     42 H13         -2.0600     4.4790    -0.1060 hc         1 LF0       0.033367
     43 H14         -0.5450     5.0070     0.6440 hc         1 LF0       0.033367
     44 H15         -0.5050     3.8050    -0.6510 hc         1 LF0       0.033367
     45 H16         -2.9740     3.8850     2.2390 hc         1 LF0       0.033367
     46 H17         -2.0870     2.7450     3.2740 hc         1 LF0       0.033367
     47 H18         -1.4450     4.3760     2.9950 hc         1 LF0       0.033367
     48 H19          0.7140     3.2080     2.3450 hc         1 LF0       0.033367
     49 H20          0.0790     1.5520     2.3070 hc         1 LF0       0.033367
     50 H21          0.8280     2.2670     0.8590 hc         1 LF0       0.033367
     51 H22          6.4770     1.6950    -0.2790 h1         1 LF0       0.044700
     52 H23          5.0440     2.4770     0.4300 h1         1 LF0       0.044700
     53 H24          5.8490    -0.4660     0.8320 hc         1 LF0       0.046700
     54 H25          6.0430     0.8100     2.0370 hc         1 LF0       0.046700
     55 H26          3.6460     1.1020     2.2810 hc         1 LF0       0.045200
     56 H27          3.9140    -0.6380     2.2960 hc         1 LF0       0.045200
@<TRIPOS>BOND
     1     1     2 ar  
     2     1     6 ar  
     3     1     7 1   
     4     2     3 ar  
     5     2    18 1   
     6     3     4 ar  
     7     3    17 1   
     8     4     5 ar  
     9     5     6 ar  
    10     5    16 ar  
    11     6    13 ar  
    12     7     8 ar  
    13     7    12 ar  
    14     8     9 ar  
    15     8    31 1   
    16     9    10 ar  
    17     9    32 1   
    18    10    11 ar  
    19    10    27 1   
    20    11    12 ar  
    21    11    30 1   
    22    12    33 1   
    23    13    14 ar  
    24    13    34 1   
    25    14    15 ar  
    26    14    35 1   
    27    15    16 ar  
    28    15    36 1   
    29    16    37 1   
    30    17    38 1   
    31    17    39 1   
    32    17    40 1   
    33    18    19 1   
    34    18    22 1   
    35    18    41 1   
    36    19    20 1   
    37    19    21 1   
    38    22    23 1   
    39    23    24 1   
    40    23    25 1   
    41    23    26 1   
    42    24    42 1   
    43    24    43 1   
    44    24    44 1   
    45    25    45 1   
    46    25    46 1   
    47    25    47 1   
    48    26    48 1   
    49    26    49 1   
    50    26    50 1   
    51    27    28 1   
    52    28    29 1   
    53    28    51 1   
    54    28    52 1   
    55    29    30 1   
    56    29    53 1   
    57    29    54 1   
    58    30    55 1   
    59    30    56 1   
@<TRIPOS>SUBSTRUCTURE
     1 LF0         1 TEMP              0 ****  ****    0 ROOT
