@<TRIPOS>MOLECULE
LF1
   57    60     1     0     0
SMALL
No Charge or Current Charge


@<TRIPOS>ATOM
      1 C01          5.5770     3.0870     0.8490 c3         1 LF1       0.147900
      2 O05          4.4040     2.3260     0.5090 os         1 LF1      -0.322100
      3 C06          4.4530     1.0020     0.1150 ca         1 LF1       0.190100
      4 C07          5.6890     0.3150     0.0540 ca         1 LF1      -0.210000
      5 C09          5.7410    -1.0360    -0.3130 ca         1 LF1      -0.051000
      6 C11          4.5590    -1.7170    -0.6230 ca         1 LF1      -0.157000
      7 C13          3.3250    -1.0520    -0.5690 ca         1 LF1      -0.052000
      8 C15          3.2480     0.3180    -0.2010 ca         1 LF1      -0.192600
      9 C16          1.8960     1.0180    -0.1540 c          1 LF1       0.635700
     10 O17          1.7730     2.2370    -0.1820 o          1 LF1      -0.573100
     11 N18          0.8070     0.1630    -0.1180 ns         1 LF1      -0.143000
     12 C20         -0.5980     0.3690    -0.0800 ca         1 LF1       0.006000
     13 C21         -1.2030     1.6490    -0.1470 ca         1 LF1      -0.139000
     14 C23         -2.5970     1.7300    -0.0410 ca         1 LF1       0.032600
     15 N24         -3.4580     2.8180    -0.3580 n          1 LF1      -0.290000
     16 C25         -3.0760     4.2380    -0.2710 c3         1 LF1       0.103300
     17 C29         -4.7830     2.3740    -0.4710 c          1 LF1       0.596000
     18 O30         -5.7820     3.0550    -0.6620 o          1 LF1      -0.568000
     19 N31         -4.7220     0.9880    -0.2720 n          1 LF1      -0.291000
     20 C32         -5.9080     0.1370    -0.0830 c3         1 LF1       0.107300
     21 C36         -3.3860     0.5890     0.0100 ca         1 LF1      -0.026400
     22 C37         -2.8170    -0.6880    -0.0370 ca         1 LF1      -0.103000
     23 C39         -1.4110    -0.7990    -0.0270 ca         1 LF1       0.166000
     24 N40         -0.8080    -2.0810    -0.0280 nh         1 LF1      -0.791400
     25 C41         -0.9390    -2.9220    -1.2590 c6         1 LF1       0.143800
     26 C44          0.0900    -4.0980    -1.3020 c6         1 LF1       0.146800
     27 N47          0.0580    -4.9290    -0.0660 n7         1 LF1      -0.845400
     28 C49          0.2590    -4.0750     1.1400 c6         1 LF1       0.146800
     29 C52         -0.7720    -2.8940     1.2350 c6         1 LF1       0.164500
     30 C54         -0.4610    -2.0070     2.4730 c3         1 LF1      -0.090100
     31 H011         6.1010     2.6370     1.7020 h1         1 LF1       0.043367
     32 H012         6.2670     3.1420    -0.0020 h1         1 LF1       0.043367
     33 H013         5.2970     4.1110     1.1260 h1         1 LF1       0.043367
     34 H07          6.6240     0.8110     0.2940 ha         1 LF1       0.121000
     35 H09          6.6960    -1.5560    -0.3560 ha         1 LF1       0.114000
     36 H11          4.5970    -2.7660    -0.9110 ha         1 LF1       0.120000
     37 H13          2.4370    -1.6210    -0.8350 ha         1 LF1       0.118000
     38 H18          1.0470    -0.8190    -0.0910 hn         1 LF1       0.184000
     39 H21         -0.6250     2.5560    -0.2860 ha         1 LF1       0.161000
     40 H251        -2.7630     4.5950    -1.2600 h1         1 LF1       0.053367
     41 H252        -3.9270     4.8380     0.0760 h1         1 LF1       0.053367
     42 H253        -2.2460     4.3590     0.4360 h1         1 LF1       0.053367
     43 H321        -6.7360     0.7280     0.3280 h1         1 LF1       0.049033
     44 H322        -6.2120    -0.2880    -1.0470 h1         1 LF1       0.049033
     45 H323        -5.6760    -0.6790     0.6140 h1         1 LF1       0.049033
     46 H37         -3.4410    -1.5760    -0.0870 ha         1 LF1       0.122000
     47 H411        -1.9550    -3.3400    -1.3150 h1         1 LF1       0.041200
     48 H412        -0.7940    -2.3010    -2.1550 h1         1 LF1       0.041200
     49 H52         -1.7680    -3.3330     1.3930 h1         1 LF1       0.022700
     50 H441        -0.1160    -4.7290    -2.1800 h1         1 LF1       0.058200
     51 H442         1.1000    -3.6810    -1.4320 h1         1 LF1       0.058200
     52 H47         -0.8770    -5.3480     0.0020 hn         1 LF1       0.404000
     53 H491         0.1830    -4.6960     2.0450 h1         1 LF1       0.059700
     54 H492         1.2770    -3.6570     1.1190 h1         1 LF1       0.059700
     55 H541        -1.2320    -1.2440     2.6280 hc         1 LF1       0.044033
     56 H542        -0.4210    -2.6130     3.3860 hc         1 LF1       0.044033
     57 H543         0.5040    -1.4990     2.3690 hc         1 LF1       0.044033
@<TRIPOS>BOND
     1     1     2 1   
     2     1    31 1   
     3     1    32 1   
     4     1    33 1   
     5     2     3 1   
     6     3     4 ar  
     7     3     8 ar  
     8     4     5 ar  
     9     4    34 1   
    10     5     6 ar  
    11     5    35 1   
    12     6     7 ar  
    13     6    36 1   
    14     7     8 ar  
    15     7    37 1   
    16     8     9 1   
    17     9    10 2   
    18     9    11 1   
    19    11    12 1   
    20    11    38 1   
    21    12    13 ar  
    22    12    23 ar  
    23    13    14 ar  
    24    13    39 1   
    25    14    15 1   
    26    14    21 ar  
    27    15    16 1   
    28    15    17 1   
    29    16    40 1   
    30    16    41 1   
    31    16    42 1   
    32    17    18 2   
    33    17    19 1   
    34    19    20 1   
    35    19    21 1   
    36    20    43 1   
    37    20    44 1   
    38    20    45 1   
    39    21    22 ar  
    40    22    23 ar  
    41    22    46 1   
    42    23    24 1   
    43    24    25 1   
    44    24    29 1   
    45    25    26 1   
    46    25    47 1   
    47    25    48 1   
    48    26    27 1   
    49    26    50 1   
    50    26    51 1   
    51    27    28 1   
    52    27    52 1   
    53    28    29 1   
    54    28    53 1   
    55    28    54 1   
    56    29    30 1   
    57    29    49 1   
    58    30    55 1   
    59    30    56 1   
    60    30    57 1   
@<TRIPOS>SUBSTRUCTURE
     1 LF1         1 TEMP              0 ****  ****    0 ROOT
