@<TRIPOS>MOLECULE
LF1
   57    60     1     0     0
SMALL
abcg2


@<TRIPOS>ATOM
      1 C01          5.1600     2.4920     1.5310 c3         1 LF1       0.147900
      2 O05          4.0850     1.9640     0.7780 os         1 LF1      -0.322100
      3 C06          4.2920     0.8690     0.0330 ca         1 LF1       0.190100
      4 C07          5.5220     0.2230    -0.0730 ca         1 LF1      -0.210000
      5 C09          5.6420    -0.9240    -0.8470 ca         1 LF1      -0.051000
      6 C11          4.5490    -1.4490    -1.5160 ca         1 LF1      -0.157000
      7 C13          3.3220    -0.8100    -1.4020 ca         1 LF1      -0.052000
      8 C15          3.1790     0.3450    -0.6420 ca         1 LF1      -0.192600
      9 C16          1.8520     1.0350    -0.5840 c          1 LF1       0.635700
     10 O17          1.7160     2.2220    -0.8250 o          1 LF1      -0.573100
     11 N18          0.8440     0.1950    -0.2650 ns         1 LF1      -0.143000
     12 C20         -0.5330     0.4070    -0.2240 ca         1 LF1       0.006000
     13 C21         -1.1420     1.6570    -0.3720 ca         1 LF1      -0.139000
     14 C23         -2.5190     1.6960    -0.2840 ca         1 LF1       0.032600
     15 N24         -3.3960     2.7540    -0.3690 n          1 LF1      -0.290000
     16 C25         -3.0270     4.1260    -0.6010 c3         1 LF1       0.103300
     17 C29         -4.6890     2.3060    -0.2160 c          1 LF1       0.596000
     18 O30         -5.7030     2.9820    -0.2440 o          1 LF1      -0.568000
     19 N31         -4.6050     0.9480    -0.0250 n          1 LF1      -0.291000
     20 C32         -5.7290     0.0740     0.1910 c3         1 LF1       0.107300
     21 C36         -3.2850     0.5510    -0.0630 ca         1 LF1      -0.026400
     22 C37         -2.6890    -0.6850     0.0730 ca         1 LF1      -0.103000
     23 C39         -1.3000    -0.7530    -0.0050 ca         1 LF1       0.166000
     24 N40         -0.5920    -1.9800     0.1170 nh         1 LF1      -0.791400
     25 C41         -0.6820    -2.8100    -1.0820 c6         1 LF1       0.143800
     26 C44          0.3240    -3.9470    -0.9990 c6         1 LF1       0.146800
     27 N47          0.1840    -4.7410     0.2070 n7         1 LF1      -0.845400
     28 C49          0.1780    -3.8960     1.3850 c6         1 LF1       0.146800
     29 C52         -0.8220    -2.7380     1.3490 c6         1 LF1       0.164500
     30 C54         -0.6420    -1.8660     2.5800 c3         1 LF1      -0.090100
     31 H011         5.5470     1.7660     2.2510 h1         1 LF1       0.043367
     32 H012         5.9800     2.8300     0.8920 h1         1 LF1       0.043367
     33 H013         4.7640     3.3460     2.0730 h1         1 LF1       0.043367
     34 H07          6.3940     0.5980     0.4450 ha         1 LF1       0.121000
     35 H09          6.6080    -1.4080    -0.9210 ha         1 LF1       0.114000
     36 H11          4.6440    -2.3410    -2.1200 ha         1 LF1       0.120000
     37 H13          2.4660    -1.2060    -1.9350 ha         1 LF1       0.118000
     38 H18          1.0660    -0.7700    -0.0380 hn         1 LF1       0.184000
     39 H21         -0.5620     2.5510    -0.5370 ha         1 LF1       0.161000
     40 H251        -2.6580     4.2690    -1.6170 h1         1 LF1       0.053367
     41 H252        -3.8970     4.7590    -0.4550 h1         1 LF1       0.053367
     42 H253        -2.2530     4.4350     0.1010 h1         1 LF1       0.053367
     43 H321        -6.6420     0.6610     0.1840 h1         1 LF1       0.049033
     44 H322        -5.7910    -0.6780    -0.5950 h1         1 LF1       0.049033
     45 H323        -5.6460    -0.4290     1.1540 h1         1 LF1       0.049033
     46 H37         -3.2730    -1.5810     0.2450 ha         1 LF1       0.122000
     47 H411        -1.6960    -3.2210    -1.2100 h1         1 LF1       0.041200
     48 H412        -0.4750    -2.1890    -1.9560 h1         1 LF1       0.041200
     49 H52         -1.8410    -3.1630     1.3550 h1         1 LF1       0.022700
     50 H441         0.2240    -4.5940    -1.8720 h1         1 LF1       0.058200
     51 H442         1.3360    -3.5290    -1.0210 h1         1 LF1       0.058200
     52 H47         -0.6790    -5.2690     0.1650 hn         1 LF1       0.404000
     53 H491        -0.0200    -4.5130     2.2640 h1         1 LF1       0.059700
     54 H492         1.1820    -3.4720     1.5090 h1         1 LF1       0.059700
     55 H541        -1.3850    -1.0720     2.6450 hc         1 LF1       0.044033
     56 H542        -0.7330    -2.4750     3.4810 hc         1 LF1       0.044033
     57 H543         0.3470    -1.4050     2.5860 hc         1 LF1       0.044033
@<TRIPOS>BOND
     1     1     2 1   
     2     1    31 1   
     3     1    32 1   
     4     1    33 1   
     5     2     3 1   
     6     3     4 ar  
     7     3     8 ar  
     8     4     5 ar  
     9     4    34 1   
    10     5     6 ar  
    11     5    35 1   
    12     6     7 ar  
    13     6    36 1   
    14     7     8 ar  
    15     7    37 1   
    16     8     9 1   
    17     9    10 2   
    18     9    11 1   
    19    11    12 1   
    20    11    38 1   
    21    12    13 ar  
    22    12    23 ar  
    23    13    14 ar  
    24    13    39 1   
    25    14    15 1   
    26    14    21 ar  
    27    15    16 1   
    28    15    17 1   
    29    16    40 1   
    30    16    41 1   
    31    16    42 1   
    32    17    18 2   
    33    17    19 1   
    34    19    20 1   
    35    19    21 1   
    36    20    43 1   
    37    20    44 1   
    38    20    45 1   
    39    21    22 ar  
    40    22    23 ar  
    41    22    46 1   
    42    23    24 1   
    43    24    25 1   
    44    24    29 1   
    45    25    26 1   
    46    25    47 1   
    47    25    48 1   
    48    26    27 1   
    49    26    50 1   
    50    26    51 1   
    51    27    28 1   
    52    27    52 1   
    53    28    29 1   
    54    28    53 1   
    55    28    54 1   
    56    29    30 1   
    57    29    49 1   
    58    30    55 1   
    59    30    56 1   
    60    30    57 1   
@<TRIPOS>SUBSTRUCTURE
     1 LF1         1 TEMP              0 ****  ****    0 ROOT
