@<TRIPOS>MOLECULE
LF2
   48    50     1     0     0
SMALL
No Charge or Current Charge


@<TRIPOS>ATOM
      1 C1           3.5410     0.9680    -0.5950 ca         1 LF2      -0.034900
      2 C2           2.2960     0.3610    -0.3700 ca         1 LF2      -0.056000
      3 C3           1.1400     1.1480    -0.1480 ca         1 LF2      -0.073000
      4 C4           1.2550     2.5610    -0.1420 ca         1 LF2       0.280000
      5 C5           2.5140     3.1500    -0.3700 ca         1 LF2      -0.083000
      6 C6           3.6530     2.3630    -0.5980 ca         1 LF2      -0.106000
      7 C13         -0.1290     0.5450     0.0810 cp         1 LF2      -0.027000
      8 C14         -1.2440     1.4030     0.3170 ca         1 LF2      -0.028300
      9 C15         -1.0210     2.8080     0.3030 ca         1 LF2       0.431300
     10 N16          0.1940     3.3600     0.0800 nb         1 LF2      -0.711000
     11 Br1          5.0880    -0.1140    -0.8950 br         1 LF2      -0.136100
     12 C18         -2.6520     0.8260     0.5720 c3         1 LF2       0.054600
     13 C19         -3.1850     1.2240     1.9960 c          1 LF2       0.717000
     14 O20         -3.5180     1.2240    -0.5380 os         1 LF2      -0.449000
     15 C21         -4.3840     0.2370    -1.1580 c3         1 LF2       0.199000
     16 C22         -5.3460    -0.3640    -0.1010 c3         1 LF2      -0.102100
     17 C23         -5.1770     1.0220    -2.2260 c3         1 LF2      -0.102100
     18 C24         -3.5100    -0.8520    -1.8330 c3         1 LF2      -0.102100
     19 O25         -4.2300     1.8530     2.1060 o          1 LF2      -0.710000
     20 O26         -2.5030     0.9080     2.9620 o          1 LF2      -0.710000
     21 C27         -0.2760    -0.9410     0.0670 cp         1 LF2      -0.026000
     22 C28         -0.4760    -1.6630     1.2680 ca         1 LF2      -0.084000
     23 C29         -0.6200    -3.0610     1.2500 ca         1 LF2      -0.117000
     24 C30         -0.5590    -3.7570     0.0320 ca         1 LF2       0.115000
     25 C31         -0.3520    -3.0590    -1.1680 ca         1 LF2      -0.117000
     26 C32         -0.2100    -1.6610    -1.1510 ca         1 LF2      -0.084000
     27 C33         -2.1090     3.8470     0.5460 c3         1 LF2      -0.154400
     28 Cl1         -0.7410    -5.5050     0.0100 cl         1 LF2      -0.234000
     29 H1           2.2460    -0.7250    -0.3650 ha         1 LF2       0.130000
     30 H2           2.6040     4.2330    -0.3680 ha         1 LF2       0.123000
     31 H3           4.6170     2.8360    -0.7720 ha         1 LF2       0.116000
     32 H4          -2.5850    -0.2640     0.6110 h1         1 LF2       0.036700
     33 H5          -5.9160     0.4250     0.4030 hc         1 LF2       0.034589
     34 H6          -6.0650    -1.0380    -0.5830 hc         1 LF2       0.034589
     35 H7          -4.8080    -0.9450     0.6560 hc         1 LF2       0.034589
     36 H8          -5.7620     1.8270    -1.7640 hc         1 LF2       0.034589
     37 H9          -4.5000     1.4710    -2.9630 hc         1 LF2       0.034589
     38 H10         -5.8710     0.3620    -2.7600 hc         1 LF2       0.034589
     39 H11         -4.1160    -1.4610    -2.5150 hc         1 LF2       0.034589
     40 H12         -2.7000    -0.3980    -2.4160 hc         1 LF2       0.034589
     41 H13         -3.0720    -1.5340    -1.0960 hc         1 LF2       0.034589
     42 H15         -0.5240    -1.1290     2.2150 ha         1 LF2       0.145000
     43 H16         -0.7780    -3.6050     2.1790 ha         1 LF2       0.122500
     44 H17         -0.3040    -3.6000    -2.1100 ha         1 LF2       0.122500
     45 H18         -0.0530    -1.1240    -2.0840 ha         1 LF2       0.145000
     46 H19         -2.3840     3.8830     1.6050 hc         1 LF2       0.065367
     47 H20         -1.7790     4.8550     0.2660 hc         1 LF2       0.065367
     48 H21         -3.0110     3.6410    -0.0380 hc         1 LF2       0.065367
@<TRIPOS>BOND
     1     1     2 ar  
     2     1     6 ar  
     3     1    11 1   
     4     2     3 ar  
     5     2    29 1   
     6     3     4 ar  
     7     3     7 ar  
     8     4     5 ar  
     9     4    10 ar  
    10     5     6 ar  
    11     5    30 1   
    12     6    31 1   
    13     7     8 ar  
    14     7    21 1   
    15     8     9 ar  
    16     8    12 1   
    17     9    10 ar  
    18     9    27 1   
    19    12    13 1   
    20    12    14 1   
    21    12    32 1   
    22    13    19 1   
    23    13    20 1   
    24    14    15 1   
    25    15    16 1   
    26    15    17 1   
    27    15    18 1   
    28    16    33 1   
    29    16    34 1   
    30    16    35 1   
    31    17    36 1   
    32    17    37 1   
    33    17    38 1   
    34    18    39 1   
    35    18    40 1   
    36    18    41 1   
    37    21    22 ar  
    38    21    26 ar  
    39    22    23 ar  
    40    22    42 1   
    41    23    24 ar  
    42    23    43 1   
    43    24    25 ar  
    44    24    28 1   
    45    25    26 ar  
    46    25    44 1   
    47    26    45 1   
    48    27    46 1   
    49    27    47 1   
    50    27    48 1   
@<TRIPOS>SUBSTRUCTURE
     1 LF2         1 TEMP              0 ****  ****    0 ROOT
