@<TRIPOS>MOLECULE
LF2
   48    50     1     0     0
SMALL
bcc


@<TRIPOS>ATOM
      1 C1           3.4120     0.9050    -0.7020 ca         1 LF2      -0.034900
      2 C2           2.2320     0.2840    -0.3940 ca         1 LF2      -0.074000
      3 C3           1.0630     1.0550    -0.1990 ca         1 LF2      -0.138300
      4 C4           1.1490     2.4600    -0.2900 ca         1 LF2       0.410600
      5 C5           2.3830     3.0610    -0.6180 ca         1 LF2      -0.166300
      6 C6           3.5020     2.3040    -0.8280 ca         1 LF2      -0.124000
      7 C13         -0.2120     0.4890     0.1030 cp         1 LF2      -0.027000
      8 C14         -1.2830     1.3230     0.3230 ca         1 LF2      -0.093600
      9 C15         -1.0630     2.7390     0.2670 ca         1 LF2       0.496600
     10 N16          0.0910     3.2640    -0.0480 nb         1 LF2      -0.711000
     11 BR1          4.9700    -0.1290    -0.9610 br         1 LF2      -0.136100
     12 C18         -2.6760     0.7990     0.5930 c3         1 LF2       0.031400
     13 C19         -3.1200     1.1100     2.0490 c          1 LF2       0.927600
     14 O20         -3.5640     1.3050    -0.3710 os         1 LF2      -0.402600
     15 C21         -4.2940     0.3920    -1.1840 c3         1 LF2       0.175800
     16 C22         -5.1800    -0.5300    -0.3470 c3         1 LF2      -0.102100
     17 C23         -5.1700     1.2840    -2.0570 c3         1 LF2      -0.102100
     18 C24         -3.3550    -0.4290    -2.0680 c3         1 LF2      -0.102100
     19 O25         -4.3110     1.3880     2.2430 o          1 LF2      -0.815300
     20 O26         -2.2140     1.0040     2.9010 o          1 LF2      -0.815300
     21 C27         -0.3300    -0.9870     0.1770 cp         1 LF2      -0.026000
     22 C28         -0.6220    -1.6170     1.3850 ca         1 LF2      -0.102000
     23 C29         -0.7210    -2.9980     1.4600 ca         1 LF2      -0.135000
     24 C30         -0.5280    -3.7530     0.3150 ca         1 LF2       0.023400
     25 C31         -0.2360    -3.1520    -0.8990 ca         1 LF2      -0.135000
     26 C32         -0.1350    -1.7710    -0.9590 ca         1 LF2      -0.102000
     27 C33         -2.1420     3.7190     0.6220 c3         1 LF2      -0.154400
     28 CL1         -0.6540    -5.4790     0.4010 cl         1 LF2      -0.142400
     29 H1           2.1900    -0.7910    -0.2900 ha         1 LF2       0.148000
     30 H2           2.4300     4.1400    -0.6910 ha         1 LF2       0.141000
     31 H3           4.4420     2.7770    -1.0770 ha         1 LF2       0.134000
     32 H4          -2.6380    -0.2940     0.5360 h1         1 LF2       0.036700
     33 H5          -5.8350     0.0490     0.3040 hc         1 LF2       0.034589
     34 H6          -5.7970    -1.1450    -1.0030 hc         1 LF2       0.034589
     35 H7          -4.6030    -1.2110     0.2810 hc         1 LF2       0.034589
     36 H8          -5.8360     1.8950    -1.4460 hc         1 LF2       0.034589
     37 H9          -4.5620     1.9500    -2.6720 hc         1 LF2       0.034589
     38 H10         -5.7850     0.6800    -2.7240 hc         1 LF2       0.034589
     39 H11         -3.9270    -1.0560    -2.7540 hc         1 LF2       0.034589
     40 H12         -2.7080     0.2200    -2.6600 hc         1 LF2       0.034589
     41 H13         -2.7160    -1.0930    -1.4850 hc         1 LF2       0.034589
     42 H15         -0.7920    -1.0180     2.2710 ha         1 LF2       0.163000
     43 H16         -0.9490    -3.4760     2.4040 ha         1 LF2       0.140500
     44 H17         -0.0900    -3.7470    -1.7900 ha         1 LF2       0.140500
     45 H18          0.0900    -1.3030    -1.9090 ha         1 LF2       0.163000
     46 H19         -2.2970     3.7260     1.7030 hc         1 LF2       0.065367
     47 H20         -1.8370     4.7200     0.3250 hc         1 LF2       0.065367
     48 H21         -3.0950     3.4800     0.1600 hc         1 LF2       0.065367
@<TRIPOS>BOND
     1     1     2 ar  
     2     1     6 ar  
     3     1    11 1   
     4     2     3 ar  
     5     2    29 1   
     6     3     4 ar  
     7     3     7 ar  
     8     4     5 ar  
     9     4    10 ar  
    10     5     6 ar  
    11     5    30 1   
    12     6    31 1   
    13     7     8 ar  
    14     7    21 1   
    15     8     9 ar  
    16     8    12 1   
    17     9    10 ar  
    18     9    27 1   
    19    12    13 1   
    20    12    14 1   
    21    12    32 1   
    22    13    19 1   
    23    13    20 1   
    24    14    15 1   
    25    15    16 1   
    26    15    17 1   
    27    15    18 1   
    28    16    33 1   
    29    16    34 1   
    30    16    35 1   
    31    17    36 1   
    32    17    37 1   
    33    17    38 1   
    34    18    39 1   
    35    18    40 1   
    36    18    41 1   
    37    21    22 ar  
    38    21    26 ar  
    39    22    23 ar  
    40    22    42 1   
    41    23    24 ar  
    42    23    43 1   
    43    24    25 ar  
    44    24    28 1   
    45    25    26 ar  
    46    25    44 1   
    47    26    45 1   
    48    27    46 1   
    49    27    47 1   
    50    27    48 1   
@<TRIPOS>SUBSTRUCTURE
     1 LF2         1 TEMP              0 ****  ****    0 ROOT
