@<TRIPOS>MOLECULE
LF3
   37    39     1     0     0
SMALL
No Charge or Current Charge


@<TRIPOS>ATOM
      1 N1           7.6830     0.3440    20.6880 ns         1 LF3      -0.149000
      2 C4           7.5070     1.8780    18.7150 ca         1 LF3       0.328900
      3 C5           7.0200     0.8080    19.5110 ca         1 LF3      -0.081000
      4 C6           8.8510     0.7510    21.3220 c          1 LF3       0.580100
      5 C7           9.1840    -0.0600    22.5850 c3         1 LF3       0.010000
      6 C8          10.3950     1.3150    24.2890 c          1 LF3       0.548000
      7 C10         12.7280    -0.2880    23.9860 ca         1 LF3       0.083100
      8 C13         13.0820    -1.8950    21.7190 ca         1 LF3       0.128000
      9 C15         11.6530    -0.4420    23.0720 ca         1 LF3      -0.062000
     10 N            6.8820     2.3210    17.5980 nb         1 LF3      -0.644000
     11 N2          10.4520     0.3430    23.2630 n          1 LF3      -0.198400
     12 C1           5.8190     0.1750    19.1140 ca         1 LF3      -0.085300
     13 C11         13.9250    -1.0020    23.8150 ca         1 LF3      -0.094000
     14 C2           5.1770     0.6430    17.9520 ca         1 LF3      -0.142000
     15 C9          11.7570     1.7220    24.8690 c6         1 LF3       0.080600
     16 C12         14.0980    -1.8170    22.6840 ca         1 LF3      -0.096000
     17 C14         11.8760    -1.1960    21.8970 ca         1 LF3      -0.116000
     18 C            5.2180    -0.9830    19.9050 c3         1 LF3      -0.052800
     19 O            9.5590     1.6690    20.9230 o          1 LF3      -0.559100
     20 O2          12.6120     0.5700    25.0580 os         1 LF3      -0.329100
     21 C3           5.7370     1.7080    17.2300 ca         1 LF3       0.316900
     22 Cl          13.3230    -2.8670    20.2730 cl         1 LF3      -0.201000
     23 H1           7.2120    -0.4270    21.1440 hn         1 LF3       0.151000
     24 H2           8.4230     2.4080    18.9620 h4         1 LF3       0.049100
     25 H3           8.3370     0.0430    23.2750 h1         1 LF3       0.086700
     26 H4           9.2270    -1.1200    22.3080 h1         1 LF3       0.086700
     27 H5          14.7260    -0.9010    24.5430 ha         1 LF3       0.138000
     28 H6           4.2530     0.1910    17.6040 ha         1 LF3       0.122000
     29 H7          12.2260     2.4120    24.1540 h1         1 LF3       0.092700
     30 H8          11.5980     2.2360    25.8260 h1         1 LF3       0.092700
     31 H9          15.0280    -2.3620    22.5400 ha         1 LF3       0.138000
     32 H10         11.1210    -1.2630    21.1180 ha         1 LF3       0.133000
     33 H11          5.9120    -1.8310    19.9530 hc         1 LF3       0.047367
     34 H12          4.9810    -0.6790    20.9310 hc         1 LF3       0.047367
     35 H13          4.2890    -1.3460    19.4490 hc         1 LF3       0.047367
     36 H14          5.2530     2.0820    16.3280 h4         1 LF3       0.023100
     37 O1           9.3400     1.7630    24.7280 o          1 LF3      -0.522000
@<TRIPOS>BOND
     1     1     3 1   
     2     1     4 1   
     3     1    23 1   
     4     2     3 ar  
     5     2    10 ar  
     6     2    24 1   
     7     3    12 ar  
     8     4     5 1   
     9     4    19 2   
    10     5    11 1   
    11     5    25 1   
    12     5    26 1   
    13     6    11 1   
    14     6    15 1   
    15     6    37 2   
    16     7     9 ar  
    17     7    13 ar  
    18     7    20 1   
    19     8    16 ar  
    20     8    17 ar  
    21     8    22 1   
    22     9    11 1   
    23     9    17 ar  
    24    10    21 ar  
    25    12    14 ar  
    26    12    18 1   
    27    13    16 ar  
    28    13    27 1   
    29    14    21 ar  
    30    14    28 1   
    31    15    20 1   
    32    15    29 1   
    33    15    30 1   
    34    16    31 1   
    35    17    32 1   
    36    18    33 1   
    37    18    34 1   
    38    18    35 1   
    39    21    36 1   
@<TRIPOS>SUBSTRUCTURE
     1 LF3         1 TEMP              0 ****  ****    0 ROOT
