@<TRIPOS>MOLECULE
LF3
   37    39     1     0     0
SMALL
abcg2


@<TRIPOS>ATOM
      1 N1           7.8090     0.0620    20.7490 ns         1 LF3      -0.149000
      2 C4           7.9750     1.4220    18.7110 ca         1 LF3       0.328900
      3 C5           7.2590     0.5720    19.5570 ca         1 LF3      -0.081000
      4 C6           8.7980     0.5970    21.5100 c          1 LF3       0.580100
      5 C7           9.0440    -0.1860    22.8040 c3         1 LF3       0.010000
      6 C8          10.2620     1.1950    24.3720 c          1 LF3       0.548000
      7 C10         12.6550    -0.1510    23.7830 ca         1 LF3       0.083100
      8 C13         12.8370    -1.6460    21.4770 ca         1 LF3       0.128000
      9 C15         11.5120    -0.3440    22.9950 ca         1 LF3      -0.062000
     10 N            7.4760     1.9080    17.5730 nb         1 LF3      -0.644000
     11 N2          10.2870     0.1950    23.4390 n          1 LF3      -0.198400
     12 C1           5.9570     0.1890    19.1980 ca         1 LF3      -0.085300
     13 C11         13.8660    -0.7160    23.4200 ca         1 LF3      -0.094000
     14 C2           5.4580     0.7010    18.0050 ca         1 LF3      -0.142000
     15 C9          11.6100     1.6100    24.9220 c6         1 LF3       0.080600
     16 C12         13.9670    -1.4770    22.2610 ca         1 LF3      -0.096000
     17 C14         11.6140    -1.0890    21.8240 ca         1 LF3      -0.116000
     18 C            5.1330    -0.7230    20.0580 c3         1 LF3      -0.052800
     19 O            9.4260     1.6070    21.2380 o          1 LF3      -0.559100
     20 O2          12.5650     0.5510    24.9510 os         1 LF3      -0.329100
     21 C3           6.2360     1.5510    17.2320 ca         1 LF3       0.316900
     22 CL          12.9430    -2.5880    20.0040 cl         1 LF3      -0.201000
     23 H1           7.3600    -0.7600    21.1260 hn         1 LF3       0.151000
     24 H2           8.9810     1.7140    18.9690 h4         1 LF3       0.049100
     25 H3           8.2320     0.0440    23.4920 h1         1 LF3       0.086700
     26 H4           9.0360    -1.2600    22.6200 h1         1 LF3       0.086700
     27 H5          14.7280    -0.5570    24.0550 ha         1 LF3       0.138000
     28 H6           4.4590     0.4390    17.6830 ha         1 LF3       0.122000
     29 H7          11.9860     2.4420    24.3150 h1         1 LF3       0.092700
     30 H8          11.4770     1.9460    25.9460 h1         1 LF3       0.092700
     31 H9          14.9090    -1.9210    21.9750 ha         1 LF3       0.138000
     32 H10         10.7590    -1.2480    21.1850 ha         1 LF3       0.133000
     33 H11          5.6000    -1.7070    20.1580 hc         1 LF3       0.047367
     34 H12          5.0190    -0.3140    21.0660 hc         1 LF3       0.047367
     35 H13          4.1440    -0.8630    19.6290 hc         1 LF3       0.047367
     36 H14          5.8490     1.9560    16.3030 h4         1 LF3       0.023100
     37 O1           9.2350     1.7530    24.7260 o          1 LF3      -0.522000
@<TRIPOS>BOND
     1     1     3 1   
     2     1     4 1   
     3     1    23 1   
     4     2     3 ar  
     5     2    10 ar  
     6     2    24 1   
     7     3    12 ar  
     8     4     5 1   
     9     4    19 2   
    10     5    11 1   
    11     5    25 1   
    12     5    26 1   
    13     6    11 1   
    14     6    15 1   
    15     6    37 2   
    16     7     9 ar  
    17     7    13 ar  
    18     7    20 1   
    19     8    16 ar  
    20     8    17 ar  
    21     8    22 1   
    22     9    11 1   
    23     9    17 ar  
    24    10    21 ar  
    25    12    14 ar  
    26    12    18 1   
    27    13    16 ar  
    28    13    27 1   
    29    14    21 ar  
    30    14    28 1   
    31    15    20 1   
    32    15    29 1   
    33    15    30 1   
    34    16    31 1   
    35    17    32 1   
    36    18    33 1   
    37    18    34 1   
    38    18    35 1   
    39    21    36 1   
@<TRIPOS>SUBSTRUCTURE
     1 LF3         1 TEMP              0 ****  ****    0 ROOT
