@<TRIPOS>MOLECULE
LF4
   35    36     1     0     0
SMALL
No Charge or Current Charge


@<TRIPOS>ATOM
      1 N1          -1.8020     1.1180     0.2170 na         1 LF4       0.003800
      2 N3           0.4590    -0.7780    -0.1910 ns         1 LF4      -0.509900
      3 C4          -3.8860     0.7120     0.1040 cc         1 LF4       0.246300
      4 C5          -3.2260    -0.4960    -0.1630 cc         1 LF4      -0.150000
      5 C6          -1.8850    -0.2520    -0.0950 cd         1 LF4      -0.227600
      6 C7          -0.8200    -1.2670    -0.3140 c          1 LF4       0.636700
      7 C8           1.6620    -1.5850    -0.3630 c3         1 LF4       0.149300
      8 C10          3.4810    -0.6190     1.1230 ca         1 LF4      -0.069500
      9 C13          4.6590     0.6990    -1.0640 ca         1 LF4      -0.154500
     10 C1          -6.0120     0.5510    -1.2640 c3         1 LF4      -0.085100
     11 C11          4.6350     0.1620     1.3100 ca         1 LF4      -0.154500
     12 C12          5.2210     0.8180     0.2160 ca         1 LF4       0.180000
     13 C14          3.5050    -0.0820    -1.2540 ca         1 LF4      -0.069500
     14 C2          -5.3920     0.8470     0.1200 c3         1 LF4      -0.089000
     15 C3          -6.0370    -0.0150     1.2300 c3         1 LF4      -0.085100
     16 C9           2.9120    -0.7450    -0.1600 ca         1 LF4      -0.133300
     17 N2          -3.0600     1.7120     0.3390 nd         1 LF4      -0.505800
     18 O1          -1.0480    -2.4380    -0.5820 o          1 LF4      -0.576100
     19 H1          -0.9530     1.6670     0.3500 hn         1 LF4       0.373000
     20 H2           0.5700     0.2010     0.0320 hn         1 LF4       0.313500
     21 H3          -3.7130    -1.4420    -0.3820 ha         1 LF4       0.159000
     22 H4           1.6460    -2.4120     0.3610 h1         1 LF4       0.064200
     23 H5           1.6620    -2.0190    -1.3720 h1         1 LF4       0.064200
     24 H6           3.0280    -1.1240     1.9750 ha         1 LF4       0.121500
     25 H7           5.1180     1.2110    -1.9060 ha         1 LF4       0.135500
     26 H8          -7.0940     0.7310    -1.2510 hc         1 LF4       0.036533
     27 H9          -5.5690     1.1980    -2.0300 hc         1 LF4       0.036533
     28 H10         -5.8430    -0.4930    -1.5560 hc         1 LF4       0.036533
     29 H11          5.0760     0.2610     2.2990 ha         1 LF4       0.135500
     30 H12          3.0710    -0.1700    -2.2480 ha         1 LF4       0.121500
     31 H13         -5.6330     1.8920     0.3550 hc         1 LF4       0.064700
     32 H14         -5.8680    -1.0830     1.0470 hc         1 LF4       0.036533
     33 H15         -5.6100     0.2370     2.2080 hc         1 LF4       0.036533
     34 H16         -7.1190     0.1580     1.2760 hc         1 LF4       0.036533
     35 F1           6.3290     1.5680     0.3970 f          1 LF4      -0.175000
@<TRIPOS>BOND
     1     1     5 1   
     2     1    17 1   
     3     1    19 1   
     4     2     6 1   
     5     2     7 1   
     6     2    20 1   
     7     3     4 1   
     8     3    14 1   
     9     3    17 2   
    10     4     5 2   
    11     4    21 1   
    12     5     6 1   
    13     6    18 2   
    14     7    16 1   
    15     7    22 1   
    16     7    23 1   
    17     8    11 ar  
    18     8    16 ar  
    19     8    24 1   
    20     9    12 ar  
    21     9    13 ar  
    22     9    25 1   
    23    10    14 1   
    24    10    26 1   
    25    10    27 1   
    26    10    28 1   
    27    11    12 ar  
    28    11    29 1   
    29    12    35 1   
    30    13    16 ar  
    31    13    30 1   
    32    14    15 1   
    33    14    31 1   
    34    15    32 1   
    35    15    33 1   
    36    15    34 1   
@<TRIPOS>SUBSTRUCTURE
     1 LF4         1 TEMP              0 ****  ****    0 ROOT
