@<TRIPOS>MOLECULE
LF4
   35    36     1     0     0
SMALL
bcc


@<TRIPOS>ATOM
      1 N1          -1.7670     0.8830     0.4370 na         1 LF4       0.003400
      2 N3           0.4450    -0.7600    -0.4250 ns         1 LF4      -0.576900
      3 C4          -3.8440     0.5570     0.2320 cc         1 LF4       0.311600
      4 C5          -3.2130    -0.6650    -0.0670 cc         1 LF4      -0.233300
      5 C6          -1.8680    -0.4130     0.0750 cd         1 LF4      -0.176900
      6 C7          -0.7340    -1.3380    -0.1310 c          1 LF4       0.703700
      7 C8           1.6560    -1.5220    -0.6580 c3         1 LF4       0.149300
      8 C10          3.1430    -0.3440     0.9890 ca         1 LF4      -0.087500
      9 C13          4.8330     0.5350    -1.0330 ca         1 LF4      -0.172500
     10 C1          -5.8800     0.7110    -1.1960 c3         1 LF4      -0.085100
     11 C11          4.2490     0.4250     1.3110 ca         1 LF4      -0.172500
     12 C12          5.0770     0.8510     0.2880 ca         1 LF4       0.144900
     13 C14          3.7180    -0.2370    -1.3340 ca         1 LF4      -0.087500
     14 C2          -5.3090     0.8680     0.2130 c3         1 LF4      -0.089000
     15 C3          -6.0690    -0.0050     1.2100 c3         1 LF4      -0.085100
     16 C9           2.8660    -0.6890    -0.3330 ca         1 LF4      -0.133300
     17 N2          -2.9450     1.4770     0.5460 nd         1 LF4      -0.505800
     18 O1          -0.8930    -2.5450    -0.0270 o          1 LF4      -0.576100
     19 H1          -0.9360     1.3910     0.6970 hn         1 LF4       0.322700
     20 H2           0.4580     0.2060    -0.7150 hn         1 LF4       0.313500
     21 H3          -3.6670    -1.5950    -0.3680 ha         1 LF4       0.177000
     22 H4           1.6290    -2.4090    -0.0250 h1         1 LF4       0.064200
     23 H5           1.7030    -1.8690    -1.6940 h1         1 LF4       0.064200
     24 H6           2.4890    -0.6850     1.7830 ha         1 LF4       0.139500
     25 H7           5.4980     0.8800    -1.8130 ha         1 LF4       0.153500
     26 H8          -6.9370     0.9820    -1.2150 hc         1 LF4       0.036533
     27 H9          -5.3590     1.3460    -1.9130 hc         1 LF4       0.036533
     28 H10         -5.7970    -0.3220    -1.5420 hc         1 LF4       0.036533
     29 H11          4.4670     0.6850     2.3390 ha         1 LF4       0.153500
     30 H12          3.5180    -0.4910    -2.3670 ha         1 LF4       0.139500
     31 H13         -5.4190     1.9140     0.5140 hc         1 LF4       0.064700
     32 H14         -5.9680    -1.0640     0.9650 hc         1 LF4       0.036533
     33 H15         -5.7040     0.1390     2.2280 hc         1 LF4       0.036533
     34 H16         -7.1330     0.2360     1.1980 hc         1 LF4       0.036533
     35 F1           6.1550     1.5910     0.5920 f          1 LF4      -0.139900
@<TRIPOS>BOND
     1     1     5 1   
     2     1    17 1   
     3     1    19 1   
     4     2     6 1   
     5     2     7 1   
     6     2    20 1   
     7     3     4 1   
     8     3    14 1   
     9     3    17 2   
    10     4     5 2   
    11     4    21 1   
    12     5     6 1   
    13     6    18 2   
    14     7    16 1   
    15     7    22 1   
    16     7    23 1   
    17     8    11 ar  
    18     8    16 ar  
    19     8    24 1   
    20     9    12 ar  
    21     9    13 ar  
    22     9    25 1   
    23    10    14 1   
    24    10    26 1   
    25    10    27 1   
    26    10    28 1   
    27    11    12 ar  
    28    11    29 1   
    29    12    35 1   
    30    13    16 ar  
    31    13    30 1   
    32    14    15 1   
    33    14    31 1   
    34    15    32 1   
    35    15    33 1   
    36    15    34 1   
@<TRIPOS>SUBSTRUCTURE
     1 LF4         1 TEMP              0 ****  ****    0 ROOT
