@<TRIPOS>MOLECULE
LF5
   30    31     1     0     0
SMALL
No Charge or Current Charge


@<TRIPOS>ATOM
      1 C10        -19.5230   -20.2670    -6.5490 ca         1 LF5      -0.207000
      2 C12        -20.1250   -17.8160    -6.3470 cc         1 LF5      -0.189000
      3 C13        -19.5130   -18.3590    -5.2240 cd         1 LF5      -0.147200
      4 C14        -20.5870   -16.4480    -6.5750 ce         1 LF5       0.683500
      5 C01        -20.8690   -24.1380    -7.8010 c3         1 LF5      -0.108600
      6 C02        -19.6800   -23.4480    -8.5050 c3         1 LF5       0.180300
      7 C03        -19.8130   -23.4870   -10.0390 c3         1 LF5      -0.108600
      8 C05        -19.2890   -21.6120    -6.8760 ca         1 LF5       0.187100
      9 C06        -18.6570   -22.4390    -5.9150 ca         1 LF5      -0.193000
     10 C07        -18.2890   -21.9130    -4.6560 ca         1 LF5      -0.065000
     11 C08        -18.5430   -20.5620    -4.3490 ca         1 LF5       0.114000
     12 C09        -19.1630   -19.7570    -5.3190 ca         1 LF5      -0.037800
     13 N15        -20.4320   -15.5290    -5.7160 n2         1 LF5      -0.832100
     14 N16        -21.2420   -16.1200    -7.7030 nv         1 LF5      -1.029200
     15 O04        -19.6670   -22.0590    -8.1280 os         1 LF5      -0.350100
     16 S11        -20.2950   -19.0650    -7.6210 ss         1 LF5       0.155400
     17 Cl         -18.0810   -19.9120    -2.7780 cl         1 LF5      -0.196000
     18 H131       -19.3090   -17.7790    -4.3270 ha         1 LF5       0.217000
     19 H013       -20.7490   -24.1280    -6.7120 hc         1 LF5       0.049533
     20 H012       -21.8120   -23.6350    -8.0480 hc         1 LF5       0.049533
     21 H011       -20.9460   -25.1840    -8.1190 hc         1 LF5       0.049533
     22 H021       -18.7390   -23.9440    -8.2330 h1         1 LF5       0.045700
     23 H031       -19.8330   -24.5230   -10.3970 hc         1 LF5       0.049533
     24 H033       -20.7350   -22.9910   -10.3640 hc         1 LF5       0.049533
     25 H032       -18.9620   -22.9800   -10.5100 hc         1 LF5       0.049533
     26 H061       -18.4400   -23.4820    -6.1230 ha         1 LF5       0.122000
     27 H071       -17.8060   -22.5510    -3.9200 ha         1 LF5       0.128000
     28 H1         -19.8830   -15.9120    -4.9380 hn         1 LF5       0.395400
     29 H162       -21.7400   -15.2410    -7.6390 hn         1 LF5       0.469500
     30 H161       -21.7240   -16.8730    -8.1760 hn         1 LF5       0.469500
@<TRIPOS>BOND
     1     1     8 ar  
     2     1    12 ar  
     3     1    16 1   
     4     2     3 2   
     5     2     4 1   
     6     2    16 1   
     7     3    12 1   
     8     3    18 1   
     9     4    13 2   
    10     4    14 1   
    11     5     6 1   
    12     5    19 1   
    13     5    20 1   
    14     5    21 1   
    15     6     7 1   
    16     6    15 1   
    17     6    22 1   
    18     7    23 1   
    19     7    24 1   
    20     7    25 1   
    21     8     9 ar  
    22     8    15 1   
    23     9    10 ar  
    24     9    26 1   
    25    10    11 ar  
    26    10    27 1   
    27    11    12 ar  
    28    11    17 1   
    29    13    28 1   
    30    14    29 1   
    31    14    30 1   
@<TRIPOS>SUBSTRUCTURE
     1 LF5         1 TEMP              0 ****  ****    0 ROOT
