@<TRIPOS>MOLECULE
LF5
   30    31     1     0     0
SMALL
bcc


@<TRIPOS>ATOM
      1 C10        -19.5690   -20.2890    -6.5150 ca         1 LF5      -0.080100
      2 C12        -20.0680   -17.8800    -6.3570 cc         1 LF5      -0.189000
      3 C13        -19.5090   -18.3460    -5.2140 cd         1 LF5      -0.097200
      4 C14        -20.4900   -16.4880    -6.6250 ce         1 LF5       0.683500
      5 C01        -20.8350   -24.1580    -7.9040 c3         1 LF5      -0.108600
      6 C02        -19.6780   -23.3650    -8.4860 c3         1 LF5       0.157100
      7 C03        -19.6990   -23.3510   -10.0010 c3         1 LF5      -0.108600
      8 C05        -19.3730   -21.6370    -6.8370 ca         1 LF5       0.187100
      9 C06        -18.8120   -22.4470    -5.8640 ca         1 LF5      -0.211000
     10 C07        -18.4520   -21.9210    -4.6150 ca         1 LF5      -0.083000
     11 C08        -18.6450   -20.5930    -4.3200 ca         1 LF5       0.022400
     12 C09        -19.2110   -19.7410    -5.2780 ca         1 LF5      -0.037800
     13 N15        -19.9040   -15.4610    -6.1460 n2         1 LF5      -0.832100
     14 N16        -21.5450   -16.3710    -7.4800 nv         1 LF5      -0.918800
     15 O04        -19.7460   -21.9920    -8.0710 os         1 LF5      -0.326900
     16 S11        -20.2560   -19.1090    -7.5720 ss         1 LF5       0.028500
     17 CL         -18.1930   -19.9580    -2.7740 cl         1 LF5      -0.104400
     18 H131       -19.3330   -17.7330    -4.3410 ha         1 LF5       0.167000
     19 H013       -20.8500   -24.1350    -6.8140 hc         1 LF5       0.049533
     20 H012       -21.7890   -23.7750    -8.2690 hc         1 LF5       0.049533
     21 H011       -20.7520   -25.2020    -8.2060 hc         1 LF5       0.049533
     22 H021       -18.7260   -23.7930    -8.1540 h1         1 LF5       0.045700
     23 H031       -19.6160   -24.3700   -10.3760 hc         1 LF5       0.049533
     24 H033       -20.6310   -22.9280   -10.3790 hc         1 LF5       0.049533
     25 H032       -18.8650   -22.7760   -10.4040 hc         1 LF5       0.049533
     26 H061       -18.6370   -23.4990    -6.0380 ha         1 LF5       0.140000
     27 H071       -18.0170   -22.5820    -3.8780 ha         1 LF5       0.146000
     28 H1         -19.0700   -15.7230    -5.6350 hn         1 LF5       0.395400
     29 H162       -21.9200   -15.4410    -7.5870 hn         1 LF5       0.414300
     30 H161       -22.2520   -17.0900    -7.4660 hn         1 LF5       0.414300
@<TRIPOS>BOND
     1     1     8 ar  
     2     1    12 ar  
     3     1    16 1   
     4     2     3 2   
     5     2     4 1   
     6     2    16 1   
     7     3    12 1   
     8     3    18 1   
     9     4    13 2   
    10     4    14 1   
    11     5     6 1   
    12     5    19 1   
    13     5    20 1   
    14     5    21 1   
    15     6     7 1   
    16     6    15 1   
    17     6    22 1   
    18     7    23 1   
    19     7    24 1   
    20     7    25 1   
    21     8     9 ar  
    22     8    15 1   
    23     9    10 ar  
    24     9    26 1   
    25    10    11 ar  
    26    10    27 1   
    27    11    12 ar  
    28    11    17 1   
    29    13    28 1   
    30    14    29 1   
    31    14    30 1   
@<TRIPOS>SUBSTRUCTURE
     1 LF5         1 TEMP              0 ****  ****    0 ROOT
