@<TRIPOS>MOLECULE
LF7
   49    52     1     0     0
SMALL
No Charge or Current Charge


@<TRIPOS>ATOM
      1 O20          2.2800    -1.8460    -0.0840 o          1 LF7      -0.583100
      2 C14          2.1980    -0.6220    -0.1300 c          1 LF7       0.599100
      3 N15          3.3690     0.1620    -0.2190 n          1 LF7      -0.425800
      4 C19          3.3660     1.6400    -0.2970 c5         1 LF7       0.105000
      5 C18          4.8570     1.9730    -0.0320 c5         1 LF7      -0.095400
      6 C17          5.5810     0.8010    -0.7440 c5         1 LF7      -0.085400
      7 C16          4.7310    -0.4310    -0.3140 c5         1 LF7       0.056400
      8 C20          5.1650    -0.9180     1.0740 c2         1 LF7       0.413200
      9 N2           6.0800    -1.8100     1.2340 n2         1 LF7      -0.729100
     10 C13          0.8180     0.1210    -0.0700 c3         1 LF7       0.092800
     11 N12         -0.3920    -0.7590    -0.2300 n7         1 LF7      -0.853400
     12 C7          -1.7490    -0.1830    -0.0610 c6         1 LF7       0.194200
     13 C8          -1.9890     0.2680     1.4170 c6         1 LF7      -0.083900
     14 C1          -3.4350     0.8190     1.5860 c6         1 LF7      -0.053700
     15 C2          -3.6390     2.0360     0.6370 c6         1 LF7      -0.072400
     16 C10         -3.4240     1.5920    -0.8390 c6         1 LF7      -0.053700
     17 C9          -1.9780     1.0420    -1.0070 c6         1 LF7      -0.083900
     18 C5          -4.4470     0.4770    -1.1970 c6         1 LF7      -0.099900
     19 C21         -4.4590    -0.2940     1.2220 c6         1 LF7      -0.099900
     20 C3          -4.2470    -0.7440    -0.2530 c6         1 LF7       0.183000
     21 O4          -5.1860    -1.7680    -0.5840 oh         1 LF7      -0.652000
     22 C6          -2.7960    -1.2840    -0.4180 c6         1 LF7      -0.059400
     23 H1           3.0510     1.9730    -1.2950 h1         1 LF7       0.045200
     24 H2           2.7100     2.1010     0.4530 h1         1 LF7       0.045200
     25 H3           5.1420     2.9530    -0.4310 hc         1 LF7       0.054700
     26 H4           5.0750     1.9830     1.0420 hc         1 LF7       0.054700
     27 H5           5.5510     0.9310    -1.8330 hc         1 LF7       0.060200
     28 H6           6.6360     0.7140    -0.4610 hc         1 LF7       0.060200
     29 H7           4.7820    -1.2420    -1.0540 h1         1 LF7       0.097700
     30 H8           4.7010    -0.5060     1.9660 h4         1 LF7      -0.040200
     31 H9           6.2080    -1.9810     2.2430 hn         1 LF7       0.376400
     32 H10          0.7960     0.6440     0.8940 h1         1 LF7       0.042700
     33 H11          0.8300     0.8860    -0.8560 h1         1 LF7       0.042700
     34 H12         -0.2910    -1.5570     0.4090 hn         1 LF7       0.435000
     35 H14         -1.8270    -0.5740     2.1050 hc         1 LF7       0.043700
     36 H15         -1.2720     1.0470     1.7080 hc         1 LF7       0.043700
     37 H16         -3.5900     1.1350     2.6270 hc         1 LF7       0.052200
     38 H17         -4.6470     2.4520     0.7650 hc         1 LF7       0.041200
     39 H18         -2.9370     2.8410     0.8970 hc         1 LF7       0.041200
     40 H19         -3.5690     2.4530    -1.5060 hc         1 LF7       0.052200
     41 H20         -1.2620     1.8440    -0.7840 hc         1 LF7       0.043700
     42 H21         -1.8040     0.7530    -2.0520 hc         1 LF7       0.043700
     43 H22         -5.4710     0.8670    -1.1090 hc         1 LF7       0.046700
     44 H23         -4.3200     0.1740    -2.2460 hc         1 LF7       0.046700
     45 H24         -4.3410    -1.1490     1.9030 hc         1 LF7       0.046700
     46 H25         -5.4830     0.0780     1.3670 hc         1 LF7       0.046700
     47 H26         -6.0780    -1.3780    -0.4670 ho         1 LF7       0.439000
     48 H27         -2.6410    -1.6270    -1.4500 hc         1 LF7       0.063200
     49 H28         -2.6530    -2.1640     0.2240 hc         1 LF7       0.063200
@<TRIPOS>BOND
     1     1     2 2   
     2     2     3 1   
     3     2    10 1   
     4     3     4 1   
     5     3     7 1   
     6     4     5 1   
     7     4    23 1   
     8     4    24 1   
     9     5     6 1   
    10     5    25 1   
    11     5    26 1   
    12     6     7 1   
    13     6    27 1   
    14     6    28 1   
    15     7     8 1   
    16     7    29 1   
    17     8     9 2   
    18     8    30 1   
    19     9    31 1   
    20    10    11 1   
    21    10    32 1   
    22    10    33 1   
    23    11    12 1   
    24    11    34 1   
    25    12    13 1   
    26    12    17 1   
    27    12    22 1   
    28    13    14 1   
    29    13    35 1   
    30    13    36 1   
    31    14    15 1   
    32    14    19 1   
    33    14    37 1   
    34    15    16 1   
    35    15    38 1   
    36    15    39 1   
    37    16    17 1   
    38    16    18 1   
    39    16    40 1   
    40    17    41 1   
    41    17    42 1   
    42    18    20 1   
    43    18    43 1   
    44    18    44 1   
    45    19    20 1   
    46    19    45 1   
    47    19    46 1   
    48    20    21 1   
    49    20    22 1   
    50    21    47 1   
    51    22    48 1   
    52    22    49 1   
@<TRIPOS>SUBSTRUCTURE
     1 LF7         1 TEMP              0 ****  ****    0 ROOT
