@<TRIPOS>MOLECULE
LF7
   49    52     1     0     0
SMALL
abcg2


@<TRIPOS>ATOM
      1 O20          2.1790    -1.7410    -0.2380 o          1 LF7      -0.583100
      2 C14          2.1170    -0.5210    -0.1830 c          1 LF7       0.599100
      3 N15          3.2200     0.2470    -0.2150 n          1 LF7      -0.425800
      4 C19          3.2540     1.7040    -0.1380 c5         1 LF7       0.105000
      5 C18          4.7170     1.9990     0.1640 c5         1 LF7      -0.095400
      6 C17          5.4500     0.8750    -0.5580 c5         1 LF7      -0.085400
      7 C16          4.5430    -0.3500    -0.3560 c5         1 LF7       0.056400
      8 C20          4.9230    -1.1290     0.8730 c2         1 LF7       0.413200
      9 N2           5.5620    -2.2140     0.7870 n2         1 LF7      -0.729100
     10 C13          0.7980     0.2200    -0.0450 c3         1 LF7       0.092800
     11 N12         -0.3130    -0.6790    -0.2300 n7         1 LF7      -0.853400
     12 C7          -1.6480    -0.1190    -0.0380 c6         1 LF7       0.194200
     13 C8          -1.8930     0.4510     1.3690 c6         1 LF7      -0.083900
     14 C1          -3.3330     0.9530     1.4980 c6         1 LF7      -0.053700
     15 C2          -3.5860     2.0480     0.4610 c6         1 LF7      -0.072400
     16 C10         -3.3680     1.4750    -0.9400 c6         1 LF7      -0.053700
     17 C9          -1.9270     0.9780    -1.0710 c6         1 LF7      -0.083900
     18 C5          -4.3350     0.3130    -1.1740 c6         1 LF7      -0.099900
     19 C21         -4.2960    -0.2120     1.2610 c6         1 LF7      -0.099900
     20 C3          -4.0820    -0.7870    -0.1400 c6         1 LF7       0.183000
     21 O4          -4.9110    -1.9130    -0.3700 oh         1 LF7      -0.652000
     22 C6          -2.6400    -1.2660    -0.2750 c6         1 LF7      -0.059400
     23 H1           2.9500     2.1530    -1.0880 h1         1 LF7       0.045200
     24 H2           2.5900     2.0800     0.6400 h1         1 LF7       0.045200
     25 H3           5.0140     2.9890    -0.1770 hc         1 LF7       0.054700
     26 H4           4.8960     1.9500     1.2400 hc         1 LF7       0.054700
     27 H5           5.5200     1.0940    -1.6260 hc         1 LF7       0.060200
     28 H6           6.4620     0.7070    -0.1920 hc         1 LF7       0.060200
     29 H7           4.5860    -1.0210    -1.2160 h1         1 LF7       0.097700
     30 H8           4.6390    -0.6660     1.8230 h4         1 LF7      -0.040200
     31 H9           5.7700    -2.5790     1.7120 hn         1 LF7       0.376400
     32 H10          0.8140     0.7360     0.9280 h1         1 LF7       0.042700
     33 H11          0.7650     1.0130    -0.7960 h1         1 LF7       0.042700
     34 H12         -0.2020    -1.4730     0.3900 hn         1 LF7       0.435000
     35 H14         -1.6990    -0.3270     2.1160 hc         1 LF7       0.043700
     36 H15         -1.1980     1.2700     1.5780 hc         1 LF7       0.043700
     37 H16         -3.4900     1.3520     2.5040 hc         1 LF7       0.052200
     38 H17         -4.6080     2.4300     0.5560 hc         1 LF7       0.041200
     39 H18         -2.9130     2.8940     0.6330 hc         1 LF7       0.041200
     40 H19         -3.5470     2.2510    -1.6890 hc         1 LF7       0.052200
     41 H20         -1.2440     1.8220    -0.9320 hc         1 LF7       0.043700
     42 H21         -1.7440     0.5860    -2.0770 hc         1 LF7       0.043700
     43 H22         -5.3700     0.6660    -1.0970 hc         1 LF7       0.046700
     44 H23         -4.2050    -0.0930    -2.1830 hc         1 LF7       0.046700
     45 H24         -4.1340    -0.9940     2.0100 hc         1 LF7       0.046700
     46 H25         -5.3330     0.1270     1.3710 hc         1 LF7       0.046700
     47 H26         -5.8280    -1.6280    -0.2950 ho         1 LF7       0.439000
     48 H27         -2.4750    -1.6810    -1.2750 hc         1 LF7       0.063200
     49 H28         -2.4480    -2.0690     0.4480 hc         1 LF7       0.063200
@<TRIPOS>BOND
     1     1     2 2   
     2     2     3 1   
     3     2    10 1   
     4     3     4 1   
     5     3     7 1   
     6     4     5 1   
     7     4    23 1   
     8     4    24 1   
     9     5     6 1   
    10     5    25 1   
    11     5    26 1   
    12     6     7 1   
    13     6    27 1   
    14     6    28 1   
    15     7     8 1   
    16     7    29 1   
    17     8     9 2   
    18     8    30 1   
    19     9    31 1   
    20    10    11 1   
    21    10    32 1   
    22    10    33 1   
    23    11    12 1   
    24    11    34 1   
    25    12    13 1   
    26    12    17 1   
    27    12    22 1   
    28    13    14 1   
    29    13    35 1   
    30    13    36 1   
    31    14    15 1   
    32    14    19 1   
    33    14    37 1   
    34    15    16 1   
    35    15    38 1   
    36    15    39 1   
    37    16    17 1   
    38    16    18 1   
    39    16    40 1   
    40    17    41 1   
    41    17    42 1   
    42    18    20 1   
    43    18    43 1   
    44    18    44 1   
    45    19    20 1   
    46    19    45 1   
    47    19    46 1   
    48    20    21 1   
    49    20    22 1   
    50    21    47 1   
    51    22    48 1   
    52    22    49 1   
@<TRIPOS>SUBSTRUCTURE
     1 LF7         1 TEMP              0 ****  ****    0 ROOT
