@<TRIPOS>MOLECULE
LF8
   61    63     1     0     0
SMALL
abcg2


@<TRIPOS>ATOM
      1 N1          -1.9070     1.4240    -0.3830 nb         1 LF8      -0.694000
      2 C2          -2.1480     0.1370    -0.1430 cp         1 LF8       0.370500
      3 C3          -1.1240    -0.7960     0.0150 ca         1 LF8      -0.109300
      4 C4           0.1900    -0.3300    -0.1550 cp         1 LF8      -0.023000
      5 C5           0.4390     1.0090    -0.4530 ca         1 LF8      -0.034300
      6 C6          -0.6690     1.8680    -0.5360 ca         1 LF8       0.385300
      7 C7           1.3090    -1.3000    -0.0150 cp         1 LF8      -0.018000
      8 C8           1.9480    -1.8190    -1.1370 ca         1 LF8      -0.082500
      9 C9           2.9750    -2.7430    -1.0070 ca         1 LF8      -0.117500
     10 C10          3.3670    -3.1440     0.2600 ca         1 LF8       0.113000
     11 C11          2.7510    -2.6380     1.3940 ca         1 LF8      -0.117500
     12 C12          1.7230    -1.7200     1.2460 ca         1 LF8      -0.082500
     13 CL           4.6520    -4.2960     0.4310 cl         1 LF8      -0.239000
     14 C14         -1.3880    -2.2360     0.3490 c3         1 LF8      -0.039800
     15 C15         -0.5510     3.3410    -0.8090 c3         1 LF8      -0.138400
     16 C16         -3.5890    -0.2100    -0.0620 cp         1 LF8      -0.107500
     17 C17         -4.1490    -1.2200    -0.8360 ca         1 LF8      -0.098000
     18 C18         -5.5120    -1.4750    -0.7720 ca         1 LF8      -0.118000
     19 C19         -6.3500    -0.7420     0.0620 ca         1 LF8      -0.087300
     20 C20         -5.7950     0.2790     0.8470 ca         1 LF8      -0.089300
     21 C21         -4.4320     0.5330     0.7640 ca         1 LF8      -0.078000
     22 C22         -7.8200    -1.0350     0.1150 c3         1 LF8      -0.039800
     23 C23         -6.6620     1.0940     1.7640 c3         1 LF8      -0.039800
     24 C24          1.8370     1.5320    -0.6920 c3         1 LF8       0.057600
     25 C25          2.0570     1.8120    -2.2070 c          1 LF8       0.718000
     26 O26          2.0720     2.6590     0.1090 os         1 LF8      -0.444000
     27 C27          3.1830     2.6590     0.9950 c3         1 LF8       0.201000
     28 C28          3.1650     4.0480     1.6220 c3         1 LF8      -0.102433
     29 C29          3.0210     1.6010     2.0860 c3         1 LF8      -0.102433
     30 C30          4.5020     2.4470     0.2510 c3         1 LF8      -0.102433
     31 O33          2.6490     2.8540    -2.5250 o          1 LF8      -0.712000
     32 O34          1.6340     0.9190    -2.9690 o          1 LF8      -0.712000
     33 H1           1.6560    -1.4810    -2.1210 ha         1 LF8       0.142500
     34 H2           3.4660    -3.1380    -1.8860 ha         1 LF8       0.120000
     35 H3           3.0670    -2.9510     2.3800 ha         1 LF8       0.120000
     36 H4           1.2420    -1.3230     2.1320 ha         1 LF8       0.142500
     37 H5          -1.2180    -2.8860    -0.5130 hc         1 LF8       0.037033
     38 H6          -0.7340    -2.5910     1.1440 hc         1 LF8       0.037033
     39 H7          -2.4120    -2.3940     0.6780 hc         1 LF8       0.037033
     40 H8          -0.2790     3.8850     0.0960 hc         1 LF8       0.055367
     41 H9           0.2070     3.5760    -1.5540 hc         1 LF8       0.055367
     42 H10         -1.5110     3.7200    -1.1550 hc         1 LF8       0.055367
     43 H11         -3.5290    -1.8000    -1.5090 ha         1 LF8       0.119000
     44 H12         -5.9330    -2.2600    -1.3880 ha         1 LF8       0.101000
     45 H13         -4.0070     1.3310     1.3620 ha         1 LF8       0.122000
     46 H14         -8.1410    -1.3020     1.1230 hc         1 LF8       0.033033
     47 H15         -8.4130    -0.1670    -0.1830 hc         1 LF8       0.033033
     48 H16         -8.0840    -1.8590    -0.5470 hc         1 LF8       0.033033
     49 H17         -7.2020     0.4620     2.4720 hc         1 LF8       0.034033
     50 H18         -6.0710     1.8060     2.3380 hc         1 LF8       0.034033
     51 H19         -7.4150     1.6580     1.2090 hc         1 LF8       0.034033
     52 H20          2.5400     0.7260    -0.4520 h1         1 LF8       0.035700
     53 H21          3.2980     4.8210     0.8630 hc         1 LF8       0.033811
     54 H22          2.2190     4.2330     2.1340 hc         1 LF8       0.033811
     55 H23          3.9670     4.1540     2.3530 hc         1 LF8       0.033811
     56 H24          3.8360     1.6720     2.8070 hc         1 LF8       0.033811
     57 H25          2.0800     1.7290     2.6250 hc         1 LF8       0.033811
     58 H26          3.0390     0.5880     1.6800 hc         1 LF8       0.033811
     59 H27          4.6080     3.1650    -0.5610 hc         1 LF8       0.033811
     60 H28          5.3440     2.5660     0.9360 hc         1 LF8       0.033811
     61 H29          4.5790     1.4450    -0.1750 hc         1 LF8       0.033811
@<TRIPOS>BOND
     1     1     2 ar  
     2     1     6 ar  
     3     2     3 ar  
     4     2    16 1   
     5     3     4 ar  
     6     3    14 1   
     7     4     5 ar  
     8     4     7 1   
     9     5     6 ar  
    10     5    24 1   
    11     6    15 1   
    12     7     8 ar  
    13     7    12 ar  
    14     8     9 ar  
    15     8    33 1   
    16     9    10 ar  
    17     9    34 1   
    18    10    11 ar  
    19    10    13 1   
    20    11    12 ar  
    21    11    35 1   
    22    12    36 1   
    23    14    37 1   
    24    14    38 1   
    25    14    39 1   
    26    15    40 1   
    27    15    41 1   
    28    15    42 1   
    29    16    17 ar  
    30    16    21 ar  
    31    17    18 ar  
    32    17    43 1   
    33    18    19 ar  
    34    18    44 1   
    35    19    20 ar  
    36    19    22 1   
    37    20    21 ar  
    38    20    23 1   
    39    21    45 1   
    40    22    46 1   
    41    22    47 1   
    42    22    48 1   
    43    23    49 1   
    44    23    50 1   
    45    23    51 1   
    46    24    25 1   
    47    24    26 1   
    48    24    52 1   
    49    25    31 1   
    50    25    32 1   
    51    26    27 1   
    52    27    28 1   
    53    27    29 1   
    54    27    30 1   
    55    28    53 1   
    56    28    54 1   
    57    28    55 1   
    58    29    56 1   
    59    29    57 1   
    60    29    58 1   
    61    30    59 1   
    62    30    60 1   
    63    30    61 1   
@<TRIPOS>SUBSTRUCTURE
     1 LF8         1 TEMP              0 ****  ****    0 ROOT
