@<TRIPOS>MOLECULE
LF8
   61    63     1     0     0
SMALL
No Charge or Current Charge


@<TRIPOS>ATOM
      1 N1          -1.9900     1.4840    -0.4620 nb         1 LF8      -0.694000
      2 C2          -2.2410     0.1960    -0.1610 cp         1 LF8       0.370500
      3 C3          -1.1910    -0.7390     0.0620 ca         1 LF8      -0.109300
      4 C4           0.1590    -0.3150    -0.0940 cp         1 LF8      -0.023000
      5 C5           0.4040     1.0440    -0.4560 ca         1 LF8      -0.034300
      6 C6          -0.7170     1.9040    -0.6150 ca         1 LF8       0.385300
      7 C7           1.2820    -1.2800     0.0960 cp         1 LF8      -0.018000
      8 C8           1.9300    -1.8610    -1.0200 ca         1 LF8      -0.082500
      9 C9           2.9980    -2.7580    -0.8440 ca         1 LF8      -0.117500
     10 C10          3.4290    -3.0880     0.4510 ca         1 LF8       0.113000
     11 C11          2.7960    -2.5250     1.5700 ca         1 LF8      -0.117500
     12 C12          1.7300    -1.6260     1.3930 ca         1 LF8      -0.082500
     13 Cl           4.7660    -4.2090     0.6710 cl         1 LF8      -0.239000
     14 C14         -1.5020    -2.1880     0.4590 c3         1 LF8      -0.039800
     15 C15         -0.6160     3.3790    -0.9940 c3         1 LF8      -0.138400
     16 C16         -3.6980    -0.1580    -0.0940 cp         1 LF8      -0.107500
     17 C17         -4.2310    -1.2360    -0.8410 ca         1 LF8      -0.098000
     18 C18         -5.5970    -1.5530    -0.7800 ca         1 LF8      -0.118000
     19 C19         -6.4740    -0.7980     0.0220 ca         1 LF8      -0.087300
     20 C20         -5.9670     0.2950     0.7650 ca         1 LF8      -0.089300
     21 C21         -4.5940     0.6040     0.6960 ca         1 LF8      -0.078000
     22 C22         -7.9530    -1.1690     0.0680 c3         1 LF8      -0.039800
     23 C23         -6.8820     1.1460     1.6410 c3         1 LF8      -0.039800
     24 C24          1.8420     1.5600    -0.6700 c3         1 LF8       0.057600
     25 C25          2.0570     2.0370    -2.1530 c          1 LF8       0.718000
     26 O26          2.1240     2.5750     0.3470 os         1 LF8      -0.444000
     27 C27          3.4030     2.5650     1.0340 c3         1 LF8       0.201000
     28 C28          3.3640     3.8020     1.9590 c3         1 LF8      -0.102433
     29 C29          3.5160     1.2700     1.8790 c3         1 LF8      -0.102433
     30 C30          4.5620     2.6900     0.0120 c3         1 LF8      -0.102433
     31 O33          2.3730     3.1980    -2.3860 o          1 LF8      -0.712000
     32 O34          1.8730     1.2160    -3.0420 o          1 LF8      -0.712000
     33 H1           1.6010    -1.6050    -2.0250 ha         1 LF8       0.142500
     34 H2           3.4900    -3.1960    -1.7090 ha         1 LF8       0.120000
     35 H3           3.1330    -2.7810     2.5710 ha         1 LF8       0.120000
     36 H4           1.2440    -1.1890     2.2630 ha         1 LF8       0.142500
     37 H5          -1.5130    -2.8400    -0.4210 hc         1 LF8       0.037033
     38 H6          -0.7670    -2.5940     1.1620 hc         1 LF8       0.037033
     39 H7          -2.4710    -2.2790     0.9610 hc         1 LF8       0.037033
     40 H8           0.1260     3.9090    -0.3900 hc         1 LF8       0.055367
     41 H9          -0.3490     3.4930    -2.0490 hc         1 LF8       0.055367
     42 H10         -1.5690     3.9020    -0.8460 hc         1 LF8       0.055367
     43 H11         -3.5790    -1.8260    -1.4810 ha         1 LF8       0.119000
     44 H12         -5.9740    -2.3900    -1.3630 ha         1 LF8       0.101000
     45 H13         -4.2050     1.4450     1.2670 ha         1 LF8       0.122000
     46 H14         -8.2680    -1.4150     1.0890 hc         1 LF8       0.033033
     47 H15         -8.5790    -0.3420    -0.2890 hc         1 LF8       0.033033
     48 H16         -8.1740    -2.0400    -0.5610 hc         1 LF8       0.033033
     49 H17         -7.3590     0.5400     2.4210 hc         1 LF8       0.034033
     50 H18         -6.3320     1.9510     2.1450 hc         1 LF8       0.034033
     51 H19         -7.6740     1.6160     1.0460 hc         1 LF8       0.034033
     52 H20          2.5380     0.7250    -0.5560 h1         1 LF8       0.035700
     53 H21          3.2370     4.7220     1.3750 hc         1 LF8       0.033811
     54 H22          2.5320     3.7310     2.6710 hc         1 LF8       0.033811
     55 H23          4.2950     3.8900     2.5320 hc         1 LF8       0.033811
     56 H24          4.3420     1.3500     2.5940 hc         1 LF8       0.033811
     57 H25          2.5940     1.0920     2.4460 hc         1 LF8       0.033811
     58 H26          3.7170     0.3940     1.2520 hc         1 LF8       0.033811
     59 H27          4.4450     3.5880    -0.6060 hc         1 LF8       0.033811
     60 H28          5.5230     2.7690     0.5350 hc         1 LF8       0.033811
     61 H29          4.6190     1.8170    -0.6470 hc         1 LF8       0.033811
@<TRIPOS>BOND
     1     1     2 ar  
     2     1     6 ar  
     3     2     3 ar  
     4     2    16 1   
     5     3     4 ar  
     6     3    14 1   
     7     4     5 ar  
     8     4     7 1   
     9     5     6 ar  
    10     5    24 1   
    11     6    15 1   
    12     7     8 ar  
    13     7    12 ar  
    14     8     9 ar  
    15     8    33 1   
    16     9    10 ar  
    17     9    34 1   
    18    10    11 ar  
    19    10    13 1   
    20    11    12 ar  
    21    11    35 1   
    22    12    36 1   
    23    14    37 1   
    24    14    38 1   
    25    14    39 1   
    26    15    40 1   
    27    15    41 1   
    28    15    42 1   
    29    16    17 ar  
    30    16    21 ar  
    31    17    18 ar  
    32    17    43 1   
    33    18    19 ar  
    34    18    44 1   
    35    19    20 ar  
    36    19    22 1   
    37    20    21 ar  
    38    20    23 1   
    39    21    45 1   
    40    22    46 1   
    41    22    47 1   
    42    22    48 1   
    43    23    49 1   
    44    23    50 1   
    45    23    51 1   
    46    24    25 1   
    47    24    26 1   
    48    24    52 1   
    49    25    31 1   
    50    25    32 1   
    51    26    27 1   
    52    27    28 1   
    53    27    29 1   
    54    27    30 1   
    55    28    53 1   
    56    28    54 1   
    57    28    55 1   
    58    29    56 1   
    59    29    57 1   
    60    29    58 1   
    61    30    59 1   
    62    30    60 1   
    63    30    61 1   
@<TRIPOS>SUBSTRUCTURE
     1 LF8         1 TEMP              0 ****  ****    0 ROOT
