@<TRIPOS>MOLECULE
LF9
   58    61     1     0     0
SMALL
abcg2


@<TRIPOS>ATOM
      1 C1          -0.7590    -0.2590     0.1230 ca         1 LF9       0.283700
      2 C2          -0.0400     0.9340     0.1250 ca         1 LF9      -0.058300
      3 C3           1.3500     0.8200     0.3110 cp         1 LF9      -0.028000
      4 C4           1.9430    -0.4250     0.5270 ca         1 LF9      -0.023300
      5 C5           1.1020    -1.5500     0.5710 ca         1 LF9       0.391300
      6 N1          -0.1960    -1.4440     0.3560 nb         1 LF9      -0.729000
      7 C7           2.1770     2.0560     0.2790 cp         1 LF9      -0.032000
      8 C8           2.7730     2.5470     1.4390 ca         1 LF9      -0.089500
      9 C9           3.5260     3.7130     1.4020 ca         1 LF9      -0.124000
     10 C10          3.6970     4.3980     0.2070 ca         1 LF9      -0.120000
     11 C11          3.1070     3.9130    -0.9530 ca         1 LF9      -0.124000
     12 C12          2.3470     2.7530    -0.9150 ca         1 LF9      -0.089500
     13 C13         -0.6960     2.2760    -0.0230 c3         1 LF9      -0.041800
     14 C14          1.5880    -2.9390     0.8660 c3         1 LF9      -0.133400
     15 C15          3.4350    -0.5740     0.7120 c3         1 LF9       0.048600
     16 C16          3.8160    -0.7970     2.2060 c          1 LF9       0.726000
     17 O17          3.9470    -1.6130    -0.0770 os         1 LF9      -0.436000
     18 O18          4.9210    -1.3170     2.4190 o          1 LF9      -0.706500
     19 O19          2.9930    -0.3880     3.0480 o          1 LF9      -0.706500
     20 C20          4.6630    -1.2870    -1.2630 c3         1 LF9       0.191000
     21 C21          3.8070    -0.4760    -2.2330 c3         1 LF9      -0.101433
     22 C22          5.9540    -0.5380    -0.9330 c3         1 LF9      -0.101433
     23 C23          5.0010    -2.6390    -1.8830 c3         1 LF9      -0.101433
     24 C24         -2.2040    -0.3600    -0.1190 cc         1 LF9       0.400800
     25 N2          -2.8200    -1.5610     0.0480 na         1 LF9      -0.284600
     26 C26         -4.1370    -1.3970    -0.2590 ca         1 LF9      -0.087200
     27 C27         -4.2510    -0.0400    -0.6100 ca         1 LF9       0.078400
     28 N3          -3.0320     0.5750    -0.5150 nd         1 LF9      -0.595100
     29 C29         -5.2260    -2.2590    -0.2690 ca         1 LF9      -0.101000
     30 C30         -5.4860     0.4900    -0.9840 ca         1 LF9      -0.048000
     31 C31         -6.4480    -1.7290    -0.6400 ca         1 LF9      -0.106000
     32 C32         -6.5600    -0.3760    -0.9890 ca         1 LF9       0.092000
     33 CL          -8.1260     0.2260    -1.4500 cl         1 LF9      -0.234000
     34 H1           2.6540     2.0040     2.3670 ha         1 LF9       0.137000
     35 H2           3.9820     4.0840     2.3110 ha         1 LF9       0.104000
     36 H3           4.2870     5.3050     0.1790 ha         1 LF9       0.097000
     37 H4           3.2350     4.4410    -1.8900 ha         1 LF9       0.104000
     38 H5           1.8840     2.3840    -1.8220 ha         1 LF9       0.137000
     39 H6          -1.6580     2.3020     0.4810 hc         1 LF9       0.047700
     40 H7          -0.0720     3.0650     0.3890 hc         1 LF9       0.047700
     41 H8          -0.8860     2.5180    -1.0700 hc         1 LF9       0.047700
     42 H9           2.2940    -2.9670     1.6950 hc         1 LF9       0.053700
     43 H10          0.7380    -3.5670     1.1220 hc         1 LF9       0.053700
     44 H11          2.0900    -3.3780     0.0050 hc         1 LF9       0.053700
     45 H12          3.9040     0.3820     0.4430 h1         1 LF9       0.042700
     46 H14          3.5500     0.5030    -1.8290 hc         1 LF9       0.034033
     47 H15          4.3480    -0.3080    -3.1660 hc         1 LF9       0.034033
     48 H16          2.8780    -0.9980    -2.4720 hc         1 LF9       0.034033
     49 H17          6.5350    -1.0850    -0.1900 hc         1 LF9       0.034033
     50 H18          6.5640    -0.4220    -1.8300 hc         1 LF9       0.034033
     51 H19          5.7700     0.4650    -0.5430 hc         1 LF9       0.034033
     52 H20          4.0940    -3.2000    -2.1150 hc         1 LF9       0.034033
     53 H21          5.5580    -2.5070    -2.8110 hc         1 LF9       0.034033
     54 H22          5.6110    -3.2390    -1.2060 hc         1 LF9       0.034033
     55 H23         -2.3450    -2.4050     0.3290 hn         1 LF9       0.384000
     56 H25         -5.1360    -3.3030     0.0020 ha         1 LF9       0.118000
     57 H26         -5.5910     1.5320    -1.2550 ha         1 LF9       0.137000
     58 H27         -7.3230    -2.3620    -0.6600 ha         1 LF9       0.118000
@<TRIPOS>BOND
     1     1     2 ar  
     2     1     6 ar  
     3     1    24 1   
     4     2     3 ar  
     5     2    13 1   
     6     3     4 ar  
     7     3     7 1   
     8     4     5 ar  
     9     4    15 1   
    10     5     6 ar  
    11     5    14 1   
    12     7     8 ar  
    13     7    12 ar  
    14     8     9 ar  
    15     8    34 1   
    16     9    10 ar  
    17     9    35 1   
    18    10    11 ar  
    19    10    36 1   
    20    11    12 ar  
    21    11    37 1   
    22    12    38 1   
    23    13    39 1   
    24    13    40 1   
    25    13    41 1   
    26    14    42 1   
    27    14    43 1   
    28    14    44 1   
    29    15    16 1   
    30    15    17 1   
    31    15    45 1   
    32    16    18 1   
    33    16    19 1   
    34    17    20 1   
    35    20    21 1   
    36    20    22 1   
    37    20    23 1   
    38    21    46 1   
    39    21    47 1   
    40    21    48 1   
    41    22    49 1   
    42    22    50 1   
    43    22    51 1   
    44    23    52 1   
    45    23    53 1   
    46    23    54 1   
    47    24    25 1   
    48    24    28 2   
    49    25    26 1   
    50    25    55 1   
    51    26    27 ar  
    52    26    29 ar  
    53    27    28 1   
    54    27    30 ar  
    55    29    31 ar  
    56    29    56 1   
    57    30    32 ar  
    58    30    57 1   
    59    31    32 ar  
    60    31    58 1   
    61    32    33 1   
@<TRIPOS>SUBSTRUCTURE
     1 LF9         1 TEMP              0 ****  ****    0 ROOT
