@<TRIPOS>MOLECULE
LF9
   58    61     1     0     0
SMALL
No Charge or Current Charge


@<TRIPOS>ATOM
      1 C1          -0.6980    -0.3180     0.1630 ca         1 LF9       0.283700
      2 C2           0.0710     0.8880     0.1520 ca         1 LF9      -0.058300
      3 C3           1.4770     0.8150     0.3970 cp         1 LF9      -0.028000
      4 C4           2.0620    -0.4590     0.6630 ca         1 LF9      -0.023300
      5 C5           1.2110    -1.5900     0.6850 ca         1 LF9       0.391300
      6 N1          -0.1120    -1.5170     0.4360 nb         1 LF9      -0.729000
      7 C7           2.3220     2.0500     0.3650 cp         1 LF9      -0.032000
      8 C8           2.8090     2.6280     1.5610 ca         1 LF9      -0.089500
      9 C9           3.6080     3.7840     1.5310 ca         1 LF9      -0.124000
     10 C10          3.9280     4.3850     0.3020 ca         1 LF9      -0.120000
     11 C11          3.4440     3.8330    -0.8950 ca         1 LF9      -0.124000
     12 C12          2.6450     2.6770    -0.8630 ca         1 LF9      -0.089500
     13 C13         -0.5960     2.2500    -0.0950 c3         1 LF9      -0.041800
     14 C14          1.6930    -3.0090     0.9710 c3         1 LF9      -0.133400
     15 C15          3.5780    -0.6020     0.9320 c3         1 LF9       0.048600
     16 C16          3.8410    -0.9360     2.4460 c          1 LF9       0.726000
     17 O17          4.1930    -1.5820     0.0280 os         1 LF9      -0.436000
     18 O18          4.6310    -1.8270     2.7390 o          1 LF9      -0.706500
     19 O19          3.2220    -0.3060     3.2930 o          1 LF9      -0.706500
     20 C20          4.5160    -1.2390    -1.3480 c3         1 LF9       0.191000
     21 C21          3.2220    -0.9980    -2.1640 c3         1 LF9      -0.101433
     22 C22          5.4640    -0.0110    -1.3730 c3         1 LF9      -0.101433
     23 C23          5.2500    -2.4870    -1.8900 c3         1 LF9      -0.101433
     24 C24         -2.1690    -0.3880    -0.1210 cc         1 LF9       0.400800
     25 N2          -2.8630    -1.6000    -0.0600 na         1 LF9      -0.284600
     26 C26         -4.1620    -1.3540    -0.3790 ca         1 LF9      -0.087200
     27 C27         -4.2510    -0.0180    -0.6330 ca         1 LF9       0.078400
     28 N3          -3.0180     0.6080    -0.4820 nd         1 LF9      -0.595100
     29 C29         -5.2560    -2.2240    -0.4590 ca         1 LF9      -0.101000
     30 C30         -5.4760     0.5600    -0.9950 ca         1 LF9      -0.048000
     31 C31         -6.5000    -1.6650    -0.8210 ca         1 LF9      -0.106000
     32 C32         -6.6070    -0.2790    -1.0880 ca         1 LF9       0.092000
     33 Cl          -8.1650     0.4020    -1.5400 cl         1 LF9      -0.234000
     34 H1           2.5600     2.1750     2.5180 ha         1 LF9       0.137000
     35 H2           3.9770     4.2150     2.4590 ha         1 LF9       0.104000
     36 H3           4.5460     5.2800     0.2790 ha         1 LF9       0.097000
     37 H4           3.6860     4.3000    -1.8460 ha         1 LF9       0.104000
     38 H5           2.2700     2.2620    -1.7950 ha         1 LF9       0.137000
     39 H6          -1.4310     2.4100     0.5970 hc         1 LF9       0.047700
     40 H7           0.0710     3.1040     0.0570 hc         1 LF9       0.047700
     41 H8          -0.9750     2.3230    -1.1210 hc         1 LF9       0.047700
     42 H9           2.2590    -3.0610     1.9050 hc         1 LF9       0.053700
     43 H10          0.8570    -3.7120     1.0690 hc         1 LF9       0.053700
     44 H11          2.3290    -3.3810     0.1610 hc         1 LF9       0.053700
     45 H12          4.0700     0.3640     0.8000 h1         1 LF9       0.042700
     46 H14          2.7510    -0.0470    -1.9040 hc         1 LF9       0.034033
     47 H15          3.4490    -0.9610    -3.2360 hc         1 LF9       0.034033
     48 H16          2.4980    -1.8060    -2.0030 hc         1 LF9       0.034033
     49 H17          6.2860    -0.1360    -0.6580 hc         1 LF9       0.034033
     50 H18          5.9010     0.1140    -2.3710 hc         1 LF9       0.034033
     51 H19          4.9330     0.9170    -1.1340 hc         1 LF9       0.034033
     52 H20          4.6020    -3.3700    -1.8440 hc         1 LF9       0.034033
     53 H21          5.5500    -2.3400    -2.9340 hc         1 LF9       0.034033
     54 H22          6.1530    -2.6940    -1.3030 hc         1 LF9       0.034033
     55 H23         -2.4400    -2.4880     0.1770 hn         1 LF9       0.384000
     56 H25         -5.1530    -3.2860    -0.2500 ha         1 LF9       0.118000
     57 H26         -5.5510     1.6240    -1.1990 ha         1 LF9       0.137000
     58 H27         -7.3790    -2.3010    -0.8960 ha         1 LF9       0.118000
@<TRIPOS>BOND
     1     1     2 ar  
     2     1     6 ar  
     3     1    24 1   
     4     2     3 ar  
     5     2    13 1   
     6     3     4 ar  
     7     3     7 1   
     8     4     5 ar  
     9     4    15 1   
    10     5     6 ar  
    11     5    14 1   
    12     7     8 ar  
    13     7    12 ar  
    14     8     9 ar  
    15     8    34 1   
    16     9    10 ar  
    17     9    35 1   
    18    10    11 ar  
    19    10    36 1   
    20    11    12 ar  
    21    11    37 1   
    22    12    38 1   
    23    13    39 1   
    24    13    40 1   
    25    13    41 1   
    26    14    42 1   
    27    14    43 1   
    28    14    44 1   
    29    15    16 1   
    30    15    17 1   
    31    15    45 1   
    32    16    18 1   
    33    16    19 1   
    34    17    20 1   
    35    20    21 1   
    36    20    22 1   
    37    20    23 1   
    38    21    46 1   
    39    21    47 1   
    40    21    48 1   
    41    22    49 1   
    42    22    50 1   
    43    22    51 1   
    44    23    52 1   
    45    23    53 1   
    46    23    54 1   
    47    24    25 1   
    48    24    28 2   
    49    25    26 1   
    50    25    55 1   
    51    26    27 ar  
    52    26    29 ar  
    53    27    28 1   
    54    27    30 ar  
    55    29    31 ar  
    56    29    56 1   
    57    30    32 ar  
    58    30    57 1   
    59    31    32 ar  
    60    31    58 1   
    61    32    33 1   
@<TRIPOS>SUBSTRUCTURE
     1 LF9         1 TEMP              0 ****  ****    0 ROOT
