@<TRIPOS>MOLECULE
LFA
   62    61     1     0     0
SMALL
abcg2


@<TRIPOS>ATOM
      1 C1          -0.3760    -0.0100    12.0700 c3         1 LFA      -0.088600
      2 C2           0.4750    -0.0050    10.8070 c3         1 LFA      -0.074400
      3 C3          -0.3630    -0.0080     9.5340 c3         1 LFA      -0.075900
      4 C4           0.4720    -0.0030     8.2590 c3         1 LFA      -0.074400
      5 C5          -0.3720    -0.0090     6.9900 c3         1 LFA      -0.074400
      6 C6           0.4590    -0.0010     5.7120 c3         1 LFA      -0.074400
      7 C7          -0.3890    -0.0080     4.4460 c3         1 LFA      -0.074400
      8 C8           0.4380    -0.0020     3.1660 c3         1 LFA      -0.074400
      9 C9          -0.4120    -0.0090     1.9010 c3         1 LFA      -0.074400
     10 C10          0.4140    -0.0040     0.6210 c3         1 LFA      -0.074400
     11 C11         -0.4370    -0.0050    -0.6440 c3         1 LFA      -0.074400
     12 C12          0.3890    -0.0010    -1.9240 c3         1 LFA      -0.074400
     13 C13         -0.4600    -0.0050    -3.1900 c3         1 LFA      -0.074400
     14 C14          0.3670     0.0030    -4.4690 c3         1 LFA      -0.074400
     15 C15         -0.4800    -0.0020    -5.7360 c3         1 LFA      -0.074400
     16 C16          0.3500     0.0060    -7.0130 c3         1 LFA      -0.074400
     17 C17         -0.4940     0.0020    -8.2820 c3         1 LFA      -0.074400
     18 C18          0.3410     0.0050    -9.5570 c3         1 LFA      -0.075900
     19 C19         -0.4970     0.0040   -10.8300 c3         1 LFA      -0.074400
     20 C20          0.3540     0.0080   -12.0930 c3         1 LFA      -0.088600
     21 H11         -1.0170    -0.8920    12.1080 hc         1 LFA       0.031367
     22 H12          0.2380    -0.0080    12.9720 hc         1 LFA       0.031367
     23 H13         -1.0230     0.8690    12.1100 hc         1 LFA       0.031367
     24 H21          1.1370    -0.8770    10.8070 hc         1 LFA       0.036700
     25 H22          1.1290     0.8720    10.8070 hc         1 LFA       0.036700
     26 H31         -1.0270     0.8640     9.5360 hc         1 LFA       0.036700
     27 H32         -1.0190    -0.8860     9.5350 hc         1 LFA       0.036700
     28 H41          1.1370    -0.8740     8.2570 hc         1 LFA       0.036700
     29 H42          1.1260     0.8760     8.2560 hc         1 LFA       0.036700
     30 H51         -1.0380     0.8620     6.9940 hc         1 LFA       0.036700
     31 H52         -1.0250    -0.8890     6.9930 hc         1 LFA       0.036700
     32 H61          1.1250    -0.8710     5.7070 hc         1 LFA       0.036950
     33 H62          1.1110     0.8790     5.7080 hc         1 LFA       0.036950
     34 H71         -1.0560     0.8610     4.4510 hc         1 LFA       0.036700
     35 H72         -1.0420    -0.8890     4.4510 hc         1 LFA       0.036700
     36 H81          1.1050    -0.8720     3.1600 hc         1 LFA       0.036950
     37 H82          1.0900     0.8790     3.1600 hc         1 LFA       0.036950
     38 H91         -1.0780     0.8610     1.9070 hc         1 LFA       0.036950
     39 H92         -1.0640    -0.8890     1.9080 hc         1 LFA       0.036950
     40 H101         1.0770    -0.8760     0.6120 hc         1 LFA       0.037200
     41 H102         1.0700     0.8740     0.6150 hc         1 LFA       0.037200
     42 H111        -1.0990     0.8680    -0.6360 hc         1 LFA       0.037200
     43 H112        -1.0930    -0.8830    -0.6380 hc         1 LFA       0.037200
     44 H121         1.0520    -0.8740    -1.9310 hc         1 LFA       0.036950
     45 H122         1.0440     0.8770    -1.9310 hc         1 LFA       0.036950
     46 H131        -1.1260     0.8650    -3.1820 hc         1 LFA       0.036950
     47 H132        -1.1130    -0.8850    -3.1850 hc         1 LFA       0.036950
     48 H141         1.0340    -0.8660    -4.4750 hc         1 LFA       0.036700
     49 H142         1.0190     0.8840    -4.4730 hc         1 LFA       0.036700
     50 H151        -1.1470     0.8670    -5.7300 hc         1 LFA       0.036950
     51 H152        -1.1320    -0.8830    -5.7320 hc         1 LFA       0.036950
     52 H161         1.0160    -0.8640    -7.0180 hc         1 LFA       0.036700
     53 H162         1.0030     0.8870    -7.0150 hc         1 LFA       0.036700
     54 H171        -1.1580     0.8740    -8.2800 hc         1 LFA       0.036700
     55 H172        -1.1490    -0.8770    -8.2800 hc         1 LFA       0.036700
     56 H181         1.0030    -0.8680    -9.5600 hc         1 LFA       0.036700
     57 H182         0.9990     0.8820    -9.5580 hc         1 LFA       0.036700
     58 H191        -1.1570     0.8770   -10.8290 hc         1 LFA       0.036700
     59 H192        -1.1530    -0.8720   -10.8310 hc         1 LFA       0.036700
     60 H201        -0.2600     0.0060   -12.9950 hc         1 LFA       0.031367
     61 H202         0.9950     0.8910   -12.1320 hc         1 LFA       0.031367
     62 H203         1.0020    -0.8700   -12.1320 hc         1 LFA       0.031367
@<TRIPOS>BOND
     1     1     2 1   
     2     1    21 1   
     3     1    22 1   
     4     1    23 1   
     5     2     3 1   
     6     2    24 1   
     7     2    25 1   
     8     3     4 1   
     9     3    26 1   
    10     3    27 1   
    11     4     5 1   
    12     4    28 1   
    13     4    29 1   
    14     5     6 1   
    15     5    30 1   
    16     5    31 1   
    17     6     7 1   
    18     6    32 1   
    19     6    33 1   
    20     7     8 1   
    21     7    34 1   
    22     7    35 1   
    23     8     9 1   
    24     8    36 1   
    25     8    37 1   
    26     9    10 1   
    27     9    38 1   
    28     9    39 1   
    29    10    11 1   
    30    10    40 1   
    31    10    41 1   
    32    11    12 1   
    33    11    42 1   
    34    11    43 1   
    35    12    13 1   
    36    12    44 1   
    37    12    45 1   
    38    13    14 1   
    39    13    46 1   
    40    13    47 1   
    41    14    15 1   
    42    14    48 1   
    43    14    49 1   
    44    15    16 1   
    45    15    50 1   
    46    15    51 1   
    47    16    17 1   
    48    16    52 1   
    49    16    53 1   
    50    17    18 1   
    51    17    54 1   
    52    17    55 1   
    53    18    19 1   
    54    18    56 1   
    55    18    57 1   
    56    19    20 1   
    57    19    58 1   
    58    19    59 1   
    59    20    60 1   
    60    20    61 1   
    61    20    62 1   
@<TRIPOS>SUBSTRUCTURE
     1 LFA         1 TEMP              0 ****  ****    0 ROOT
