@<TRIPOS>MOLECULE
LFA
   62    61     1     0     0
SMALL
No Charge or Current Charge


@<TRIPOS>ATOM
      1 C1          -0.3610    -0.0090    12.2250 c3         1 LFA      -0.088600
      2 C2           0.4810    -0.0040    10.9350 c3         1 LFA      -0.074400
      3 C3          -0.3780    -0.0090     9.6520 c3         1 LFA      -0.075900
      4 C4           0.4660    -0.0040     8.3580 c3         1 LFA      -0.074400
      5 C5          -0.3940    -0.0090     7.0760 c3         1 LFA      -0.074400
      6 C6           0.4500    -0.0030     5.7820 c3         1 LFA      -0.074400
      7 C7          -0.4100    -0.0080     4.4990 c3         1 LFA      -0.074400
      8 C8           0.4340    -0.0030     3.2060 c3         1 LFA      -0.074400
      9 C9          -0.4250    -0.0070     1.9230 c3         1 LFA      -0.074400
     10 C10          0.4190    -0.0020     0.6300 c3         1 LFA      -0.074400
     11 C11         -0.4410    -0.0060    -0.6530 c3         1 LFA      -0.074400
     12 C12          0.4030     0.0000    -1.9460 c3         1 LFA      -0.074400
     13 C13         -0.4570    -0.0040    -3.2290 c3         1 LFA      -0.074400
     14 C14          0.3870     0.0020    -4.5230 c3         1 LFA      -0.074400
     15 C15         -0.4720    -0.0020    -5.8060 c3         1 LFA      -0.074400
     16 C16          0.3720     0.0040    -7.0990 c3         1 LFA      -0.074400
     17 C17         -0.4880     0.0010    -8.3820 c3         1 LFA      -0.074400
     18 C18          0.3560     0.0070    -9.6750 c3         1 LFA      -0.075900
     19 C19         -0.5030     0.0030   -10.9580 c3         1 LFA      -0.074400
     20 C20          0.3390     0.0090   -12.2490 c3         1 LFA      -0.088600
     21 H11         -0.9950    -0.9030    12.2720 hc         1 LFA       0.031367
     22 H12          0.2910    -0.0050    13.1070 hc         1 LFA       0.031367
     23 H13         -1.0060     0.8760    12.2720 hc         1 LFA       0.031367
     24 H21          1.1390    -0.8820    10.9350 hc         1 LFA       0.036700
     25 H22          1.1290     0.8820    10.9360 hc         1 LFA       0.036700
     26 H31         -1.0370     0.8690     9.6560 hc         1 LFA       0.036700
     27 H32         -1.0260    -0.8950     9.6560 hc         1 LFA       0.036700
     28 H41          1.1240    -0.8820     8.3540 hc         1 LFA       0.036700
     29 H42          1.1130     0.8820     8.3550 hc         1 LFA       0.036700
     30 H51         -1.0520     0.8690     7.0800 hc         1 LFA       0.036700
     31 H52         -1.0410    -0.8950     7.0790 hc         1 LFA       0.036700
     32 H61          1.1080    -0.8810     5.7780 hc         1 LFA       0.036950
     33 H62          1.0970     0.8820     5.7780 hc         1 LFA       0.036950
     34 H71         -1.0680     0.8700     4.5040 hc         1 LFA       0.036700
     35 H72         -1.0570    -0.8940     4.5030 hc         1 LFA       0.036700
     36 H81          1.0920    -0.8810     3.2020 hc         1 LFA       0.036950
     37 H82          1.0820     0.8830     3.2020 hc         1 LFA       0.036950
     38 H91         -1.0840     0.8710     1.9280 hc         1 LFA       0.036950
     39 H92         -1.0730    -0.8930     1.9270 hc         1 LFA       0.036950
     40 H101         1.0770    -0.8800     0.6250 hc         1 LFA       0.037200
     41 H102         1.0660     0.8840     0.6260 hc         1 LFA       0.037200
     42 H111        -1.0990     0.8720    -0.6490 hc         1 LFA       0.037200
     43 H112        -1.0890    -0.8920    -0.6500 hc         1 LFA       0.037200
     44 H121         1.0610    -0.8780    -1.9510 hc         1 LFA       0.036950
     45 H122         1.0510     0.8860    -1.9500 hc         1 LFA       0.036950
     46 H131        -1.1150     0.8740    -3.2250 hc         1 LFA       0.036950
     47 H132        -1.1040    -0.8900    -3.2260 hc         1 LFA       0.036950
     48 H141         1.0450    -0.8760    -4.5270 hc         1 LFA       0.036700
     49 H142         1.0350     0.8880    -4.5260 hc         1 LFA       0.036700
     50 H151        -1.1300     0.8770    -5.8010 hc         1 LFA       0.036950
     51 H152        -1.1200    -0.8870    -5.8020 hc         1 LFA       0.036950
     52 H161         1.0300    -0.8740    -7.1040 hc         1 LFA       0.036700
     53 H162         1.0200     0.8900    -7.1020 hc         1 LFA       0.036700
     54 H171        -1.1450     0.8790    -8.3770 hc         1 LFA       0.036700
     55 H172        -1.1360    -0.8850    -8.3790 hc         1 LFA       0.036700
     56 H181         1.0140    -0.8720    -9.6800 hc         1 LFA       0.036700
     57 H182         1.0040     0.8920    -9.6780 hc         1 LFA       0.036700
     58 H191        -1.1610     0.8810   -10.9580 hc         1 LFA       0.036700
     59 H192        -1.1510    -0.8820   -10.9600 hc         1 LFA       0.036700
     60 H201        -0.3130     0.0060   -13.1300 hc         1 LFA       0.031367
     61 H202         0.9740     0.9020   -12.2940 hc         1 LFA       0.031367
     62 H203         0.9830    -0.8770   -12.2960 hc         1 LFA       0.031367
@<TRIPOS>BOND
     1     1     2 1   
     2     1    21 1   
     3     1    22 1   
     4     1    23 1   
     5     2     3 1   
     6     2    24 1   
     7     2    25 1   
     8     3     4 1   
     9     3    26 1   
    10     3    27 1   
    11     4     5 1   
    12     4    28 1   
    13     4    29 1   
    14     5     6 1   
    15     5    30 1   
    16     5    31 1   
    17     6     7 1   
    18     6    32 1   
    19     6    33 1   
    20     7     8 1   
    21     7    34 1   
    22     7    35 1   
    23     8     9 1   
    24     8    36 1   
    25     8    37 1   
    26     9    10 1   
    27     9    38 1   
    28     9    39 1   
    29    10    11 1   
    30    10    40 1   
    31    10    41 1   
    32    11    12 1   
    33    11    42 1   
    34    11    43 1   
    35    12    13 1   
    36    12    44 1   
    37    12    45 1   
    38    13    14 1   
    39    13    46 1   
    40    13    47 1   
    41    14    15 1   
    42    14    48 1   
    43    14    49 1   
    44    15    16 1   
    45    15    50 1   
    46    15    51 1   
    47    16    17 1   
    48    16    52 1   
    49    16    53 1   
    50    17    18 1   
    51    17    54 1   
    52    17    55 1   
    53    18    19 1   
    54    18    56 1   
    55    18    57 1   
    56    19    20 1   
    57    19    58 1   
    58    19    59 1   
    59    20    60 1   
    60    20    61 1   
    61    20    62 1   
@<TRIPOS>SUBSTRUCTURE
     1 LFA         1 TEMP              0 ****  ****    0 ROOT
