@<TRIPOS>MOLECULE
LFB
   24    25     1     0     0
SMALL
No Charge or Current Charge


@<TRIPOS>ATOM
      1 C10        -20.1060   -17.7240    -6.2510 cc         1 LFB      -0.141000
      2 C11        -19.3210   -18.1340    -5.1830 cd         1 LFB      -0.165200
      3 C12        -20.4740   -16.3720    -6.6630 ce         1 LFB       0.689500
      4 C01        -20.3760   -23.6670    -7.4010 c3         1 LFB       0.149900
      5 C03        -19.7180   -21.6220    -6.1910 ca         1 LFB       0.169100
      6 C04        -18.9830   -22.3390    -5.2150 ca         1 LFB      -0.195000
      7 C05        -18.3230   -21.6490    -4.1730 ca         1 LFB      -0.078000
      8 C06        -18.3910   -20.2450    -4.0980 ca         1 LFB      -0.110000
      9 C07        -19.1250   -19.5570    -5.0740 ca         1 LFB      -0.044800
     10 C08        -19.7710   -20.2230    -6.0920 ca         1 LFB      -0.222000
     11 N13        -20.2950   -15.3410    -5.8100 nv         1 LFB      -1.067200
     12 N14        -20.8410   -16.0980    -7.8450 n2         1 LFB      -0.837100
     13 O02        -20.3820   -22.2390    -7.2310 os         1 LFB      -0.338100
     14 S09        -20.6350   -19.1350    -7.2180 ss         1 LFB       0.213400
     15 H111       -18.8690   -17.4340    -4.4850 ha         1 LFB       0.199000
     16 H013       -20.9610   -23.9470    -8.2860 h1         1 LFB       0.043033
     17 H011       -19.3520   -24.0390    -7.5390 h1         1 LFB       0.043033
     18 H012       -20.8180   -24.1660    -6.5290 h1         1 LFB       0.043033
     19 H041       -18.9130   -23.4220    -5.2470 ha         1 LFB       0.116000
     20 H051       -17.7590   -22.2040    -3.4260 ha         1 LFB       0.111000
     21 H061       -17.8850   -19.7060    -3.3000 ha         1 LFB       0.117000
     22 H131       -20.1900   -15.6110    -4.8390 hn         1 LFB       0.462500
     23 H1         -20.8790   -14.5290    -5.9660 hn         1 LFB       0.462500
     24 H141       -20.7300   -15.0870    -7.9790 hn         1 LFB       0.378400
@<TRIPOS>BOND
     1     1     2 2   
     2     1     3 1   
     3     1    14 1   
     4     2     9 1   
     5     2    15 1   
     6     3    11 1   
     7     3    12 2   
     8     4    13 1   
     9     4    16 1   
    10     4    17 1   
    11     4    18 1   
    12     5     6 ar  
    13     5    10 ar  
    14     5    13 1   
    15     6     7 ar  
    16     6    19 1   
    17     7     8 ar  
    18     7    20 1   
    19     8     9 ar  
    20     8    21 1   
    21     9    10 ar  
    22    10    14 1   
    23    11    22 1   
    24    11    23 1   
    25    12    24 1   
@<TRIPOS>SUBSTRUCTURE
     1 LFB         1 TEMP              0 ****  ****    0 ROOT
