@<TRIPOS>MOLECULE
LFB
   24    25     1     0     0
SMALL
abcg2


@<TRIPOS>ATOM
      1 C10        -20.0440   -17.7720    -6.2090 cc         1 LFB      -0.141000
      2 C11        -19.3060   -18.1240    -5.1260 cd         1 LFB      -0.165200
      3 C12        -20.4460   -16.4360    -6.6780 ce         1 LFB       0.689500
      4 C01        -20.3480   -23.5280    -7.4150 c3         1 LFB       0.149900
      5 C03        -19.7050   -21.6040    -6.1940 ca         1 LFB       0.169100
      6 C04        -19.0100   -22.3170    -5.2310 ca         1 LFB      -0.195000
      7 C05        -18.3750   -21.6450    -4.1740 ca         1 LFB      -0.078000
      8 C06        -18.4170   -20.2750    -4.0530 ca         1 LFB      -0.110000
      9 C07        -19.1170   -19.5390    -5.0210 ca         1 LFB      -0.044800
     10 C08        -19.7470   -20.2110    -6.0750 ca         1 LFB      -0.222000
     11 N13        -20.1480   -15.4030    -5.8410 nv         1 LFB      -1.067200
     12 N14        -20.9850   -16.3660    -7.8340 n2         1 LFB      -0.837100
     13 O02        -20.3540   -22.1220    -7.2480 os         1 LFB      -0.338100
     14 S09        -20.5440   -19.1330    -7.1660 ss         1 LFB       0.213400
     15 H111       -18.8890   -17.4220    -4.4170 ha         1 LFB       0.199000
     16 H013       -20.9310   -23.7350    -8.3090 h1         1 LFB       0.043033
     17 H011       -19.3360   -23.9150    -7.5540 h1         1 LFB       0.043033
     18 H012       -20.8090   -24.0380    -6.5660 h1         1 LFB       0.043033
     19 H041       -18.9430   -23.3960    -5.2780 ha         1 LFB       0.116000
     20 H051       -17.8420   -22.2330    -3.4380 ha         1 LFB       0.111000
     21 H061       -17.9250   -19.7720    -3.2310 ha         1 LFB       0.117000
     22 H131       -20.0800   -15.5860    -4.8540 hn         1 LFB       0.462500
     23 H1         -20.5550   -14.5060    -6.0560 hn         1 LFB       0.462500
     24 H141       -21.2410   -15.4130    -8.0740 hn         1 LFB       0.378400
@<TRIPOS>BOND
     1     1     2 2   
     2     1     3 1   
     3     1    14 1   
     4     2     9 1   
     5     2    15 1   
     6     3    11 1   
     7     3    12 2   
     8     4    13 1   
     9     4    16 1   
    10     4    17 1   
    11     4    18 1   
    12     5     6 ar  
    13     5    10 ar  
    14     5    13 1   
    15     6     7 ar  
    16     6    19 1   
    17     7     8 ar  
    18     7    20 1   
    19     8     9 ar  
    20     8    21 1   
    21     9    10 ar  
    22    10    14 1   
    23    11    22 1   
    24    11    23 1   
    25    12    24 1   
@<TRIPOS>SUBSTRUCTURE
     1 LFB         1 TEMP              0 ****  ****    0 ROOT
