@<TRIPOS>MOLECULE
LFC
   23    22     1     0     0
SMALL
No Charge or Current Charge


@<TRIPOS>ATOM
      1 O1A         -4.4600    -0.9580     2.6270 o          1 LFC      -0.722000
      2 C1          -3.4790    -0.2330     2.5050 c          1 LFC       0.703000
      3 O1B         -3.0720     0.4830     3.4110 o          1 LFC      -0.722000
      4 C2          -2.6120    -0.3210     1.1900 c3         1 LFC       0.025300
      5 O2          -2.5810    -1.6380     0.5630 oh         1 LFC      -0.766000
      6 C3          -3.1320     0.7060     0.1400 c3         1 LFC       0.149300
      7 O3          -4.2660     0.1120    -0.5380 oh         1 LFC      -0.697000
      8 C4          -2.0360     1.1490    -0.8920 c3         1 LFC       0.143300
      9 O4          -0.9520     1.8090    -0.2140 oh         1 LFC      -0.718000
     10 C5          -2.5550     2.1540    -1.9700 c3         1 LFC       0.123300
     11 C6          -1.5750     2.3400    -3.1480 c3         1 LFC      -0.120100
     12 O5          -2.7700     3.4360    -1.3530 oh         1 LFC      -0.727000
     13 H2          -1.5950    -0.0360     1.4880 h1         1 LFC       0.043700
     14 HO2         -3.3970    -1.6190    -0.0040 ho         1 LFC       0.536000
     15 H3          -3.4550     1.6060     0.6840 h1         1 LFC       0.050700
     16 HO3         -4.8620     0.8490    -0.8060 ho         1 LFC       0.475000
     17 H4          -1.6750     0.2450    -1.4040 h1         1 LFC       0.093700
     18 HO4         -1.1950     2.7630    -0.3200 ho         1 LFC       0.499000
     19 H5          -3.4970     1.7720    -2.3870 h1         1 LFC       0.038700
     20 H61         -1.3790     1.3780    -3.6370 hc         1 LFC       0.034700
     21 H62         -0.6170     2.7550    -2.8110 hc         1 LFC       0.034700
     22 H63         -1.9970     3.0190    -3.8990 hc         1 LFC       0.034700
     23 HO5         -3.1900     4.0190    -2.0280 ho         1 LFC       0.488000
@<TRIPOS>BOND
     1     1     2 1   
     2     2     3 1   
     3     2     4 1   
     4     4     5 1   
     5     4     6 1   
     6     4    13 1   
     7     5    14 1   
     8     6     7 1   
     9     6     8 1   
    10     6    15 1   
    11     7    16 1   
    12     8     9 1   
    13     8    10 1   
    14     8    17 1   
    15     9    18 1   
    16    10    11 1   
    17    10    12 1   
    18    10    19 1   
    19    11    20 1   
    20    11    21 1   
    21    11    22 1   
    22    12    23 1   
@<TRIPOS>SUBSTRUCTURE
     1 LFC         1 TEMP              0 ****  ****    0 ROOT
