@<TRIPOS>MOLECULE
LFC
   23    22     1     0     0
SMALL
bcc


@<TRIPOS>ATOM
      1 O1A         -4.1500    -1.5400     2.3080 o          1 LFC      -0.827300
      2 C1          -3.6380    -0.4000     2.2460 c          1 LFC       0.913600
      3 O1B         -3.8590     0.5690     2.9880 o          1 LFC      -0.827300
      4 C2          -2.6100    -0.2110     1.1070 c3         1 LFC       0.002100
      5 O2          -2.4560    -1.4210     0.4100 oh         1 LFC      -0.643800
      6 C3          -3.0570     0.9200     0.1860 c3         1 LFC       0.126100
      7 O3          -4.3460     0.5970    -0.2940 oh         1 LFC      -0.574800
      8 C4          -2.0650     1.1470    -0.9690 c3         1 LFC       0.120100
      9 O4          -0.8160     1.5660    -0.4590 oh         1 LFC      -0.595800
     10 C5          -2.6010     2.1080    -2.0300 c3         1 LFC       0.100100
     11 C6          -1.5960     2.3490    -3.1460 c3         1 LFC      -0.120100
     12 O5          -2.9550     3.3120    -1.3720 oh         1 LFC      -0.604800
     13 H2          -1.6530     0.0890     1.5560 h1         1 LFC       0.043700
     14 HO2         -3.1290    -1.9860     0.8330 ho         1 LFC       0.437000
     15 H3          -3.0860     1.8310     0.7980 h1         1 LFC       0.050700
     16 HO3         -4.7730     1.4090    -0.5810 ho         1 LFC       0.376000
     17 H4          -1.8850     0.1920    -1.4720 h1         1 LFC       0.093700
     18 HO4         -0.9270     2.4440    -0.0770 ho         1 LFC       0.400000
     19 H5          -3.4870     1.6400    -2.4810 h1         1 LFC       0.038700
     20 H61         -1.3030     1.4060    -3.6110 hc         1 LFC       0.034700
     21 H62         -0.6950     2.8420    -2.7820 hc         1 LFC       0.034700
     22 H63         -2.0310     2.9750    -3.9270 hc         1 LFC       0.034700
     23 HO5         -3.2300     3.9530    -2.0350 ho         1 LFC       0.389000
@<TRIPOS>BOND
     1     1     2 1   
     2     2     3 1   
     3     2     4 1   
     4     4     5 1   
     5     4     6 1   
     6     4    13 1   
     7     5    14 1   
     8     6     7 1   
     9     6     8 1   
    10     6    15 1   
    11     7    16 1   
    12     8     9 1   
    13     8    10 1   
    14     8    17 1   
    15     9    18 1   
    16    10    11 1   
    17    10    12 1   
    18    10    19 1   
    19    11    20 1   
    20    11    21 1   
    21    11    22 1   
    22    12    23 1   
@<TRIPOS>SUBSTRUCTURE
     1 LFC         1 TEMP              0 ****  ****    0 ROOT
