@<TRIPOS>MOLECULE
LFD
   64    68     1     0     0
SMALL
bcc


@<TRIPOS>ATOM
      1 OAA         -3.1150    -0.6470    -1.0820 o          1 LFD      -0.550000
      2 CLB        -10.4110     2.9670     0.5290 cl         1 LFD      -0.090400
      3 CLD         10.6060    -1.1710     0.9910 cl         1 LFD      -0.087400
      4 CLE         -7.7860    -0.7650    -2.2640 cl         1 LFD      -0.096400
      5 CAF         -2.9450    -3.9140     0.7970 cc         1 LFD       0.306200
      6 CAG         -8.0360     1.9500     1.3090 ca         1 LFD      -0.124000
      7 CAH         -0.4250     0.5080    -0.6030 ca         1 LFD      -0.121500
      8 CAI         -0.1660     0.1940     1.7490 ca         1 LFD      -0.121500
      9 CAJ          9.3400     2.0820    -0.9300 ca         1 LFD      -0.083000
     10 CAK          0.9510     0.5370    -0.7410 ca         1 LFD      -0.155000
     11 CAL          1.2130     0.2580     1.6140 ca         1 LFD      -0.155000
     12 CAM          7.9720     1.9940    -0.7850 ca         1 LFD      -0.169000
     13 CAN         -6.9420     1.1160     1.1520 ca         1 LFD      -0.086000
     14 CAO         -3.8450    -3.0580     1.3620 cd         1 LFD      -0.273600
     15 CAP         -4.5120    -3.6860    -0.6230 cd         1 LFD       0.404400
     16 CAQ         -8.9590     1.0990    -0.7490 ca         1 LFD      -0.116000
     17 CAR          8.2340    -0.0470     0.4430 ca         1 LFD      -0.187000
     18 CAS          4.0290     0.1630     1.3300 c6         1 LFD       0.188300
     19 CAT          3.7530     1.4810    -0.6440 c6         1 LFD       0.188300
     20 CAU          5.4510    -0.1710     0.9150 c6         1 LFD       0.193800
     21 CAV          5.1640     1.1400    -1.0750 c6         1 LFD       0.193800
     22 CAW         -5.9740    -2.0280     0.5230 c3         1 LFD       0.026300
     23 NAX         -3.3750    -4.3020    -0.4420 nc         1 LFD      -0.664000
     24 NAY         -2.3930     0.3060     0.8650 ns         1 LFD      -0.462100
     25 OAZ         -4.5330    -0.1130     0.5960 os         1 LFD      -0.449900
     26 CBA         -3.3170    -0.2000     0.0210 c          1 LFD       0.767100
     27 CBB         -9.0370     1.9340     0.3520 ca         1 LFD       0.041400
     28 CBC         -1.0040     0.3210     0.6500 ca         1 LFD       0.045600
     29 CBD         10.1780     1.1180    -0.3860 ca         1 LFD      -0.011600
     30 CBE          9.6100     0.0600     0.3040 ca         1 LFD       0.063400
     31 CBF         -7.8520     0.2760    -0.8790 ca         1 LFD       0.041400
     32 CBG          1.8100     0.4140     0.3590 ca         1 LFD       0.136600
     33 CBH          7.3810     0.9260    -0.0890 ca         1 LFD       0.175600
     34 CBI         -6.8200     0.2680     0.0560 ca         1 LFD      -0.095300
     35 CBJ         -5.6450    -0.6630    -0.0880 c3         1 LFD       0.195400
     36 NBK          3.1950     0.4180     0.1760 nh         1 LFD      -0.641000
     37 NBL          6.0070     0.8740     0.0810 nh         1 LFD      -0.651000
     38 NBM         -4.8510    -2.9280     0.4440 na         1 LFD      -0.196900
     39 HAF         -2.0200    -4.2730     1.2200 h4         1 LFD       0.037100
     40 HAG         -8.1040     2.6020     2.1690 ha         1 LFD       0.155000
     41 HAH         -1.0360     0.6290    -1.4850 ha         1 LFD       0.143000
     42 HAI         -0.5880     0.0570     2.7380 ha         1 LFD       0.143000
     43 HAJ          9.7670     2.9220    -1.4610 ha         1 LFD       0.148000
     44 HAK          1.3550     0.6520    -1.7380 ha         1 LFD       0.135000
     45 HAL          1.8110     0.1830     2.5110 ha         1 LFD       0.135000
     46 HAM          7.3630     2.7860    -1.1990 ha         1 LFD       0.140000
     47 HAN         -6.1680     1.1380     1.9070 ha         1 LFD       0.151000
     48 HAO         -3.8660    -2.5550     2.3140 h4         1 LFD       0.170000
     49 HAP         -5.1420    -3.7540    -1.4980 h5         1 LFD       0.055100
     50 HAQ         -9.7420     1.0870    -1.4940 ha         1 LFD       0.167000
     51 HAR          7.8430    -0.9110     0.9600 ha         1 LFD       0.149000
     52 HAS          3.6450    -0.6970     1.8800 h1         1 LFD       0.047700
     53 HASA         4.0430     1.0200     2.0200 h1         1 LFD       0.047700
     54 HAT          3.7600     2.4350    -0.0970 h1         1 LFD       0.047700
     55 HATA         3.1570     1.6240    -1.5420 h1         1 LFD       0.047700
     56 HAU          6.0380    -0.2650     1.8280 h1         1 LFD       0.050450
     57 HAUA         5.4640    -1.1460     0.4060 h1         1 LFD       0.050450
     58 HAV          5.1430     0.2670    -1.7420 h1         1 LFD       0.050450
     59 HAVA         5.5540     1.9790    -1.6460 h1         1 LFD       0.050450
     60 HAW         -6.2620    -1.9140     1.5690 h1         1 LFD       0.075200
     61 HAWA        -6.8220    -2.4670    -0.0020 h1         1 LFD       0.075200
     62 HNAY        -2.7070     0.5670     1.7870 hn         1 LFD       0.329500
     63 HBJ         -5.4010    -0.7910    -1.1450 h1         1 LFD       0.103700
     64 CLC         11.8880     1.2570    -0.5690 cl         1 LFD      -0.084400
@<TRIPOS>BOND
     1     1    26 2   
     2     2    27 1   
     3     3    30 1   
     4     4    31 1   
     5     5    14 2   
     6     5    23 1   
     7     5    39 1   
     8     6    13 ar  
     9     6    27 ar  
    10     6    40 1   
    11     7    10 ar  
    12     7    28 ar  
    13     7    41 1   
    14     8    11 ar  
    15     8    28 ar  
    16     8    42 1   
    17     9    12 ar  
    18     9    29 ar  
    19     9    43 1   
    20    10    32 ar  
    21    10    44 1   
    22    11    32 ar  
    23    11    45 1   
    24    12    33 ar  
    25    12    46 1   
    26    13    34 ar  
    27    13    47 1   
    28    14    38 1   
    29    14    48 1   
    30    15    23 2   
    31    15    38 1   
    32    15    49 1   
    33    16    27 ar  
    34    16    31 ar  
    35    16    50 1   
    36    17    30 ar  
    37    17    33 ar  
    38    17    51 1   
    39    18    20 1   
    40    18    36 1   
    41    18    52 1   
    42    18    53 1   
    43    19    21 1   
    44    19    36 1   
    45    19    54 1   
    46    19    55 1   
    47    20    37 1   
    48    20    56 1   
    49    20    57 1   
    50    21    37 1   
    51    21    58 1   
    52    21    59 1   
    53    22    35 1   
    54    22    38 1   
    55    22    60 1   
    56    22    61 1   
    57    24    26 1   
    58    24    28 1   
    59    24    62 1   
    60    25    26 1   
    61    25    35 1   
    62    29    30 ar  
    63    29    64 1   
    64    31    34 ar  
    65    32    36 1   
    66    33    37 1   
    67    34    35 1   
    68    35    63 1   
@<TRIPOS>SUBSTRUCTURE
     1 LFD         1 TEMP              0 ****  ****    0 ROOT
