@<TRIPOS>MOLECULE
LFD
   64    68     1     0     0
SMALL
No Charge or Current Charge


@<TRIPOS>ATOM
      1 OAA         -3.2600    -0.6020    -1.2890 o          1 LFD      -0.501000
      2 ClB        -10.6610     2.8010     1.4550 cl         1 LFD      -0.182000
      3 ClD         10.8710    -1.0000     1.4500 cl         1 LFD      -0.179000
      4 ClE         -8.1750    -0.3940    -2.1930 cl         1 LFD      -0.188000
      5 CAF         -3.1310    -4.2370     0.0190 cc         1 LFD       0.240900
      6 CAG         -8.1830     1.7020     1.8710 ca         1 LFD      -0.106000
      7 CAH         -0.3100    -0.2390    -0.5200 ca         1 LFD      -0.103500
      8 CAI         -0.2790     1.0560     1.5320 ca         1 LFD      -0.103500
      9 CAJ          9.5760     1.9640    -1.0150 ca         1 LFD      -0.065000
     10 CAK          1.0920    -0.1590    -0.5840 ca         1 LFD      -0.137000
     11 CAL          1.1240     1.1330     1.4630 ca         1 LFD      -0.137000
     12 CAM          8.1800     1.8660    -0.8740 ca         1 LFD      -0.151000
     13 CAN         -7.0680     0.9290     1.5030 ca         1 LFD      -0.068000
     14 CAO         -3.8680    -3.3900     0.8010 cd         1 LFD      -0.241000
     15 CAP         -4.7300    -3.5560    -1.2520 cd         1 LFD       0.404400
     16 CAQ         -9.2430     1.1900    -0.2520 ca         1 LFD      -0.098000
     17 CAR          8.4560     0.0270     0.6830 ca         1 LFD      -0.169000
     18 CAS          4.0880     0.7840     1.5320 c6         1 LFD       0.188300
     19 CAT          3.8850     1.1370    -0.9240 c6         1 LFD       0.188300
     20 CAU          5.5560     0.2780     1.3380 c6         1 LFD       0.193800
     21 CAV          5.3510     0.6280    -1.1190 c6         1 LFD       0.193800
     22 CAW         -5.9770    -2.0210     0.3650 c3         1 LFD       0.055600
     23 NAX         -3.6610    -4.3440    -1.2360 nc         1 LFD      -0.664000
     24 NAY         -2.4250     0.3290     0.6720 ns         1 LFD      -0.136000
     25 OAZ         -4.6280     0.0090     0.4570 os         1 LFD      -0.473100
     26 CBA         -3.4180    -0.1410    -0.1670 c          1 LFD       0.651100
     27 CBB         -9.2670     1.8350     0.9920 ca         1 LFD       0.133000
     28 CBC         -1.0100     0.3750     0.5410 ca         1 LFD      -0.047000
     29 CBD         10.4150     1.0900    -0.3070 ca         1 LFD       0.080000
     30 CBE          9.8500     0.1190     0.5450 ca         1 LFD       0.155000
     31 CBF         -8.1320     0.4160    -0.6260 ca         1 LFD       0.133000
     32 CBG          1.8250     0.5280     0.4010 ca         1 LFD       0.275000
     33 CBH          7.6080     0.8990    -0.0260 ca         1 LFD       0.314000
     34 CBI         -7.0240     0.2840     0.2450 ca         1 LFD      -0.095300
     35 CBJ         -5.8090    -0.5660    -0.1460 c3         1 LFD       0.218600
     36 NBK          3.2370     0.5920     0.3130 nh         1 LFD      -0.779400
     37 NBL          6.2020     0.8230     0.1000 nh         1 LFD      -0.789400
     38 NBM         -4.8970    -2.9510    -0.0140 na         1 LFD      -0.175500
     39 HAF         -2.2390    -4.7890     0.2860 h4         1 LFD       0.037100
     40 HAG         -8.2070     2.1970     2.8390 ha         1 LFD       0.137000
     41 HAH         -0.8310    -0.7910    -1.2960 ha         1 LFD       0.125000
     42 HAI         -0.7990     1.5340     2.3600 ha         1 LFD       0.125000
     43 HAJ         10.0060     2.7170    -1.6710 ha         1 LFD       0.130000
     44 HAK          1.6150    -0.6490    -1.4010 ha         1 LFD       0.117000
     45 HAL          1.6580     1.6760     2.2360 ha         1 LFD       0.117000
     46 HAM          7.5400     2.5550    -1.4170 ha         1 LFD       0.122000
     47 HAN         -6.2400     0.8330     2.2030 ha         1 LFD       0.133000
     48 HAO         -3.7350    -3.0830     1.8310 h4         1 LFD       0.152000
     49 HAP         -5.4050    -3.3830    -2.0820 h5         1 LFD       0.055100
     50 HAQ        -10.0890     1.2870    -0.9270 ha         1 LFD       0.149000
     51 HAR          8.0410    -0.7350     1.3340 ha         1 LFD       0.131000
     52 HAS          3.6530     0.2480     2.3880 h1         1 LFD       0.047700
     53 HASA         4.1190     1.8510     1.7960 h1         1 LFD       0.047700
     54 HAT          3.9020     2.2350    -0.8730 h1         1 LFD       0.047700
     55 HATA         3.3070     0.8680    -1.8200 h1         1 LFD       0.047700
     56 HAU          6.1360     0.5640     2.2280 h1         1 LFD       0.050450
     57 HAUA         5.5430    -0.8210     1.2950 h1         1 LFD       0.050450
     58 HAV          5.3170    -0.4410    -1.3740 h1         1 LFD       0.050450
     59 HAVA         5.7820     1.1490    -1.9850 h1         1 LFD       0.050450
     60 HAW         -6.0560    -2.0040     1.4590 h1         1 LFD       0.075200
     61 HAWA        -6.9220    -2.4220    -0.0220 h1         1 LFD       0.075200
     62 HNAY        -2.7750     0.6960     1.5470 hn         1 LFD       0.163000
     63 HBJ         -5.7200    -0.5730    -1.2400 h1         1 LFD       0.103700
     64 ClC         12.1630     1.2310    -0.5010 cl         1 LFD      -0.176000
@<TRIPOS>BOND
     1     1    26 2   
     2     2    27 1   
     3     3    30 1   
     4     4    31 1   
     5     5    14 2   
     6     5    23 1   
     7     5    39 1   
     8     6    13 ar  
     9     6    27 ar  
    10     6    40 1   
    11     7    10 ar  
    12     7    28 ar  
    13     7    41 1   
    14     8    11 ar  
    15     8    28 ar  
    16     8    42 1   
    17     9    12 ar  
    18     9    29 ar  
    19     9    43 1   
    20    10    32 ar  
    21    10    44 1   
    22    11    32 ar  
    23    11    45 1   
    24    12    33 ar  
    25    12    46 1   
    26    13    34 ar  
    27    13    47 1   
    28    14    38 1   
    29    14    48 1   
    30    15    23 2   
    31    15    38 1   
    32    15    49 1   
    33    16    27 ar  
    34    16    31 ar  
    35    16    50 1   
    36    17    30 ar  
    37    17    33 ar  
    38    17    51 1   
    39    18    20 1   
    40    18    36 1   
    41    18    52 1   
    42    18    53 1   
    43    19    21 1   
    44    19    36 1   
    45    19    54 1   
    46    19    55 1   
    47    20    37 1   
    48    20    56 1   
    49    20    57 1   
    50    21    37 1   
    51    21    58 1   
    52    21    59 1   
    53    22    35 1   
    54    22    38 1   
    55    22    60 1   
    56    22    61 1   
    57    24    26 1   
    58    24    28 1   
    59    24    62 1   
    60    25    26 1   
    61    25    35 1   
    62    29    30 ar  
    63    29    64 1   
    64    31    34 ar  
    65    32    36 1   
    66    33    37 1   
    67    34    35 1   
    68    35    63 1   
@<TRIPOS>SUBSTRUCTURE
     1 LFD         1 TEMP              0 ****  ****    0 ROOT
