@<TRIPOS>MOLECULE
LFF
   68    69     1     0     0
SMALL
abcg2


@<TRIPOS>ATOM
      1 C01          4.3770     3.6230     2.5620 c3         1 LFF      -0.086100
      2 C02          4.8840     2.5760     1.5760 c3         1 LFF      -0.057700
      3 C03          5.8530     1.6200     2.2650 c3         1 LFF      -0.086100
      4 C04          3.6920     1.8440     0.9580 c3         1 LFF      -0.092400
      5 C05          4.0630     0.7800    -0.0810 c3         1 LFF       0.035700
      6 N06          4.9860     1.2610    -1.0790 ns         1 LFF      -0.491900
      7 C07          4.6270     2.1330    -2.0350 c          1 LFF       0.593100
      8 C08          5.6890     2.4540    -3.0560 c3         1 LFF      -0.177100
      9 O09          3.5100     2.6300    -2.0820 o          1 LFF      -0.564100
     10 C10          2.8810     0.0710    -0.7650 c          1 LFF       0.600100
     11 O11          3.0420    -0.5190    -1.8200 o          1 LFF      -0.640100
     12 N12          1.7270     0.0830    -0.0840 ns         1 LFF      -0.443900
     13 C13          0.5620    -0.7070    -0.4120 c3         1 LFF      -0.220300
     14 C14          0.5220    -1.9840     0.4460 c3         1 LFF      -0.042100
     15 C15          1.8010    -2.7650     0.3590 ca         1 LFF      -0.027300
     16 C16          2.0060    -3.6830    -0.6680 ca         1 LFF      -0.107000
     17 C17          3.2090    -4.3610    -0.7910 ca         1 LFF      -0.121000
     18 C18          4.2370    -4.1270     0.1140 ca         1 LFF      -0.144000
     19 C19          4.0460    -3.2160     1.1440 ca         1 LFF      -0.121000
     20 C20          2.8360    -2.5460     1.2660 ca         1 LFF      -0.107000
     21 P21         -0.9070     0.4130    -0.1310 p5         1 LFF       1.384000
     22 O22         -0.9840     1.3890    -1.2860 o          1 LFF      -0.802500
     23 O23         -0.7300     0.9500     1.2780 o          1 LFF      -0.802500
     24 C24         -2.3390    -0.7290    -0.2250 c3         1 LFF      -0.407400
     25 C25         -3.6790     0.0080    -0.2280 c3         1 LFF      -0.153700
     26 C26         -4.8100    -0.9690    -0.5870 c3         1 LFF      -0.018100
     27 C27         -6.1480    -0.2960    -0.7040 ca         1 LFF      -0.018300
     28 C28         -6.5480     0.2800    -1.9090 ca         1 LFF      -0.097500
     29 C29         -7.7670     0.9360    -2.0210 ca         1 LFF      -0.127000
     30 C30         -8.6130     1.0260    -0.9230 ca         1 LFF      -0.150000
     31 C31         -8.2270     0.4560     0.2840 ca         1 LFF      -0.127000
     32 C32         -7.0060    -0.1960     0.3900 ca         1 LFF      -0.097500
     33 C33         -3.9590     0.6630     1.1390 c          1 LFF       0.726000
     34 O34         -4.1150     1.8990     1.1660 o          1 LFF      -0.742000
     35 O35         -4.0320    -0.1120     2.1160 o          1 LFF      -0.742000
     36 H01          3.8160     3.1560     3.3760 hc         1 LFF       0.026533
     37 H01A         5.2030     4.1800     3.0060 hc         1 LFF       0.026533
     38 H01B         3.7140     4.3410     2.0750 hc         1 LFF       0.026533
     39 H02          5.4230     3.0970     0.7780 hc         1 LFF       0.040700
     40 H03          6.3330     0.9330     1.5670 hc         1 LFF       0.026533
     41 H03A         6.6490     2.1720     2.7670 hc         1 LFF       0.026533
     42 H03B         5.3400     1.0200     3.0220 hc         1 LFF       0.026533
     43 H04          3.1520     1.3600     1.7780 hc         1 LFF       0.076700
     44 H04A         3.0120     2.5740     0.5130 hc         1 LFF       0.076700
     45 H05          4.5860    -0.0280     0.4420 h1         1 LFF       0.047700
     46 HN06         5.8960     0.8360    -1.1260 hn         1 LFF       0.298500
     47 H08          6.6700     2.0590    -2.8030 hc         1 LFF       0.045367
     48 H08A         5.3930     2.0420    -4.0220 hc         1 LFF       0.045367
     49 H08B         5.7680     3.5340    -3.1750 hc         1 LFF       0.045367
     50 HN12         1.6420     0.6530     0.7430 hn         1 LFF       0.335500
     51 H13          0.6170    -0.9830    -1.4660 h1         1 LFF       0.073700
     52 H14          0.3210    -1.7070     1.4850 hc         1 LFF       0.059200
     53 H14A        -0.3130    -2.6050     0.1170 hc         1 LFF       0.059200
     54 H16          1.2130    -3.8670    -1.3850 ha         1 LFF       0.112500
     55 H17          3.3460    -5.0740    -1.5950 ha         1 LFF       0.087500
     56 H18          5.1780    -4.6540     0.0200 ha         1 LFF       0.083000
     57 H19          4.8390    -3.0300     1.8580 ha         1 LFF       0.087500
     58 H20          2.6910    -1.8410     2.0760 ha         1 LFF       0.112500
     59 H24         -2.2400    -1.3190    -1.1450 hc         1 LFF       0.023700
     60 H24A        -2.3200    -1.4370     0.6070 hc         1 LFF       0.023700
     61 H25         -3.6470     0.7870    -0.9960 hc         1 LFF       0.054700
     62 H26         -4.5640    -1.4540    -1.5370 hc         1 LFF       0.022700
     63 H26A        -4.8500    -1.7570     0.1680 hc         1 LFF       0.022700
     64 H28         -5.8970     0.2120    -2.7730 ha         1 LFF       0.121000
     65 H29         -8.0580     1.3740    -2.9670 ha         1 LFF       0.082500
     66 H30         -9.5650     1.5350    -1.0070 ha         1 LFF       0.076000
     67 H31         -8.8790     0.5210     1.1460 ha         1 LFF       0.082500
     68 H32         -6.7050    -0.6260     1.3380 ha         1 LFF       0.121000
@<TRIPOS>BOND
     1     1     2 1   
     2     1    36 1   
     3     1    37 1   
     4     1    38 1   
     5     2     3 1   
     6     2     4 1   
     7     2    39 1   
     8     3    40 1   
     9     3    41 1   
    10     3    42 1   
    11     4     5 1   
    12     4    43 1   
    13     4    44 1   
    14     5     6 1   
    15     5    10 1   
    16     5    45 1   
    17     6     7 1   
    18     6    46 1   
    19     7     8 1   
    20     7     9 2   
    21     8    47 1   
    22     8    48 1   
    23     8    49 1   
    24    10    11 2   
    25    10    12 1   
    26    12    13 1   
    27    12    50 1   
    28    13    14 1   
    29    13    21 1   
    30    13    51 1   
    31    14    15 1   
    32    14    52 1   
    33    14    53 1   
    34    15    16 ar  
    35    15    20 ar  
    36    16    17 ar  
    37    16    54 1   
    38    17    18 ar  
    39    17    55 1   
    40    18    19 ar  
    41    18    56 1   
    42    19    20 ar  
    43    19    57 1   
    44    20    58 1   
    45    21    22 1   
    46    21    23 1   
    47    21    24 1   
    48    24    25 1   
    49    24    59 1   
    50    24    60 1   
    51    25    26 1   
    52    25    33 1   
    53    25    61 1   
    54    26    27 1   
    55    26    62 1   
    56    26    63 1   
    57    27    28 ar  
    58    27    32 ar  
    59    28    29 ar  
    60    28    64 1   
    61    29    30 ar  
    62    29    65 1   
    63    30    31 ar  
    64    30    66 1   
    65    31    32 ar  
    66    31    67 1   
    67    32    68 1   
    68    33    34 1   
    69    33    35 1   
@<TRIPOS>SUBSTRUCTURE
     1 LFF         1 TEMP              0 ****  ****    0 ROOT
