@<TRIPOS>MOLECULE
LFF
   68    69     1     0     0
SMALL
No Charge or Current Charge


@<TRIPOS>ATOM
      1 C01          4.7320     4.1490     2.1820 c3         1 LFF      -0.086100
      2 C02          5.0920     2.8880     1.3640 c3         1 LFF      -0.057700
      3 C03          6.0370     1.9640     2.1670 c3         1 LFF      -0.086100
      4 C04          3.8070     2.1560     0.8790 c3         1 LFF      -0.092400
      5 C05          4.0390     0.9210    -0.0490 c3         1 LFF       0.035700
      6 N06          4.9770     1.1900    -1.1680 ns         1 LFF      -0.491900
      7 C07          4.8330     2.1710    -2.1290 c          1 LFF       0.593100
      8 C08          5.9570     2.2100    -3.1580 c3         1 LFF      -0.177100
      9 O09          3.8920     2.9500    -2.1610 o          1 LFF      -0.564100
     10 C10          2.7120     0.2560    -0.5530 c          1 LFF       0.600100
     11 O11          2.5010    -0.0250    -1.7290 o          1 LFF      -0.640100
     12 N12          1.7800    -0.0130     0.4380 ns         1 LFF      -0.443900
     13 C13          0.4850    -0.7330     0.2420 c3         1 LFF      -0.220300
     14 C14          0.5500    -2.1480     0.8750 c3         1 LFF      -0.042100
     15 C15          1.7900    -2.9310     0.4520 ca         1 LFF      -0.027300
     16 C16          1.8710    -3.4830    -0.8410 ca         1 LFF      -0.107000
     17 C17          3.0180    -4.1930    -1.2400 ca         1 LFF      -0.121000
     18 C18          4.0910    -4.3520    -0.3480 ca         1 LFF      -0.144000
     19 C19          4.0170    -3.8030     0.9430 ca         1 LFF      -0.121000
     20 C20          2.8700    -3.0950     1.3420 ca         1 LFF      -0.107000
     21 P21         -1.0350     0.2440     0.7490 p5         1 LFF       1.384000
     22 O22         -1.0430     1.5710     0.0560 o          1 LFF      -0.802500
     23 O23         -1.0840     0.3690     2.2400 o          1 LFF      -0.802500
     24 C24         -2.4460    -0.7940     0.1340 c3         1 LFF      -0.407400
     25 C25         -3.8410    -0.0840     0.0500 c3         1 LFF      -0.153700
     26 C26         -4.9160    -1.0250    -0.5550 c3         1 LFF      -0.018100
     27 C27         -6.2320    -0.3130    -0.8520 ca         1 LFF      -0.018300
     28 C28         -6.3520     0.5090    -1.9900 ca         1 LFF      -0.097500
     29 C29         -7.5660     1.1630    -2.2690 ca         1 LFF      -0.127000
     30 C30         -8.6660     0.9970    -1.4130 ca         1 LFF      -0.150000
     31 C31         -8.5540     0.1790    -0.2770 ca         1 LFF      -0.127000
     32 C32         -7.3410    -0.4750     0.0030 ca         1 LFF      -0.097500
     33 C33         -4.3120     0.5100     1.4120 c          1 LFF       0.726000
     34 O34         -4.4600     1.7210     1.4930 o          1 LFF      -0.742000
     35 O35         -4.5360    -0.2540     2.3410 o          1 LFF      -0.742000
     36 H01          4.1820     3.8810     3.0920 hc         1 LFF       0.026533
     37 H01A         5.6380     4.6920     2.4760 hc         1 LFF       0.026533
     38 H01B         4.1080     4.8300     1.5910 hc         1 LFF       0.026533
     39 H02          5.6440     3.2350     0.4810 hc         1 LFF       0.040700
     40 H03          6.3970     1.1320     1.5500 hc         1 LFF       0.026533
     41 H03A         6.9150     2.5200     2.5170 hc         1 LFF       0.026533
     42 H03B         5.5250     1.5480     3.0440 hc         1 LFF       0.026533
     43 H04          3.2410     1.8420     1.7640 hc         1 LFF       0.076700
     44 H04A         3.1660     2.8750     0.3540 hc         1 LFF       0.076700
     45 H05          4.5160     0.1500     0.5690 h1         1 LFF       0.047700
     46 HN06         5.7940     0.5980    -1.2580 hn         1 LFF       0.298500
     47 H08          6.9160     2.3130    -2.6370 hc         1 LFF       0.045367
     48 H08A         6.0510     1.2220    -3.6240 hc         1 LFF       0.045367
     49 H08B         5.8190     2.9980    -3.9070 hc         1 LFF       0.045367
     50 HN12         2.0410     0.2590     1.3800 hn         1 LFF       0.335500
     51 H13          0.3210    -0.8580    -0.8340 h1         1 LFF       0.073700
     52 H14          0.5200    -2.0550     1.9680 hc         1 LFF       0.059200
     53 H14A        -0.3470    -2.7150     0.5970 hc         1 LFF       0.059200
     54 H16          1.0460    -3.3570    -1.5390 ha         1 LFF       0.112500
     55 H17          3.0740    -4.6150    -2.2400 ha         1 LFF       0.087500
     56 H18          4.9780    -4.9000    -0.6560 ha         1 LFF       0.083000
     57 H19          4.8480    -3.9250     1.6340 ha         1 LFF       0.087500
     58 H20          2.8240    -2.6700     2.3420 ha         1 LFF       0.112500
     59 H24         -2.1570    -1.1570    -0.8580 hc         1 LFF       0.023700
     60 H24A        -2.5170    -1.6670     0.7930 hc         1 LFF       0.023700
     61 H25         -3.7230     0.7590    -0.6430 hc         1 LFF       0.054700
     62 H26         -4.5280    -1.4580    -1.4850 hc         1 LFF       0.022700
     63 H26A        -5.0820    -1.8720     0.1220 hc         1 LFF       0.022700
     64 H28         -5.5040     0.6410    -2.6570 ha         1 LFF       0.121000
     65 H29         -7.6510     1.7960    -3.1490 ha         1 LFF       0.082500
     66 H30         -9.6050     1.5020    -1.6290 ha         1 LFF       0.076000
     67 H31         -9.4050     0.0500     0.3870 ha         1 LFF       0.082500
     68 H32         -7.2610    -1.1050     0.8850 ha         1 LFF       0.121000
@<TRIPOS>BOND
     1     1     2 1   
     2     1    36 1   
     3     1    37 1   
     4     1    38 1   
     5     2     3 1   
     6     2     4 1   
     7     2    39 1   
     8     3    40 1   
     9     3    41 1   
    10     3    42 1   
    11     4     5 1   
    12     4    43 1   
    13     4    44 1   
    14     5     6 1   
    15     5    10 1   
    16     5    45 1   
    17     6     7 1   
    18     6    46 1   
    19     7     8 1   
    20     7     9 2   
    21     8    47 1   
    22     8    48 1   
    23     8    49 1   
    24    10    11 2   
    25    10    12 1   
    26    12    13 1   
    27    12    50 1   
    28    13    14 1   
    29    13    21 1   
    30    13    51 1   
    31    14    15 1   
    32    14    52 1   
    33    14    53 1   
    34    15    16 ar  
    35    15    20 ar  
    36    16    17 ar  
    37    16    54 1   
    38    17    18 ar  
    39    17    55 1   
    40    18    19 ar  
    41    18    56 1   
    42    19    20 ar  
    43    19    57 1   
    44    20    58 1   
    45    21    22 1   
    46    21    23 1   
    47    21    24 1   
    48    24    25 1   
    49    24    59 1   
    50    24    60 1   
    51    25    26 1   
    52    25    33 1   
    53    25    61 1   
    54    26    27 1   
    55    26    62 1   
    56    26    63 1   
    57    27    28 ar  
    58    27    32 ar  
    59    28    29 ar  
    60    28    64 1   
    61    29    30 ar  
    62    29    65 1   
    63    30    31 ar  
    64    30    66 1   
    65    31    32 ar  
    66    31    67 1   
    67    32    68 1   
    68    33    34 1   
    69    33    35 1   
@<TRIPOS>SUBSTRUCTURE
     1 LFF         1 TEMP              0 ****  ****    0 ROOT
