@<TRIPOS>MOLECULE
LFG
   35    37     1     0     0
SMALL
No Charge or Current Charge


@<TRIPOS>ATOM
      1 N1           2.3440    -1.5370    -0.3250 nc         1 LFG      -0.344000
      2 N3          -0.2890     0.6290     0.2320 nu         1 LFG      -0.916100
      3 C4           2.8960    -0.4270     0.1480 cd         1 LFG       0.437300
      4 C5           0.8810    -0.0390     0.0940 cd         1 LFG       0.667900
      5 C6          -1.6360     0.1230    -0.0630 c3         1 LFG       0.243500
      6 C7          -2.4680     1.2910    -0.6520 c3         1 LFG      -0.088400
      7 C8          -3.8230     0.9090    -1.2890 c3         1 LFG      -0.066400
      8 C10         -4.3530    -1.3270    -0.1070 c3         1 LFG      -0.072900
      9 C1           5.3230    -0.2600    -0.7940 cx         1 LFG      -0.106400
     10 C11         -3.3580    -1.5210     1.0600 c3         1 LFG      -0.066400
     11 C12         -2.2470    -0.4560     1.2380 c3         1 LFG      -0.088400
     12 C2           5.0630     1.0170    -0.0320 cx         1 LFG      -0.106400
     13 C3           4.3550    -0.2600     0.3700 cx         1 LFG      -0.173000
     14 C9          -4.7990     0.1260    -0.3810 c3         1 LFG      -0.072900
     15 N2           0.9910    -1.2720    -0.3630 nc         1 LFG      -0.440000
     16 O1           2.0260     0.5670     0.4410 os         1 LFG      -0.317000
     17 H1          -0.1890     1.5630     0.6210 hn         1 LFG       0.492000
     18 H2          -1.5720    -0.6780    -0.8150 h1         1 LFG       0.087700
     19 H3          -2.6410     2.0430     0.1280 hc         1 LFG       0.043450
     20 H4          -1.8730     1.7890    -1.4280 hc         1 LFG       0.043450
     21 H5          -4.3180     1.8330    -1.6120 hc         1 LFG       0.042450
     22 H6          -3.6380     0.3300    -2.2030 hc         1 LFG       0.042450
     23 H7          -3.9220    -1.7500    -1.0230 hc         1 LFG       0.039450
     24 H8          -5.2430    -1.9310     0.1080 hc         1 LFG       0.039450
     25 H10          6.2850    -0.7480    -0.6540 hc         1 LFG       0.082950
     26 H11         -3.9240    -1.5770     1.9990 hc         1 LFG       0.042450
     27 H12         -2.8840    -2.5030     0.9380 hc         1 LFG       0.042450
     28 H13         -1.4540    -0.9200     1.8380 hc         1 LFG       0.043450
     29 H14         -2.6350     0.3680     1.8490 hc         1 LFG       0.043450
     30 H15          5.8500     1.3890     0.6200 hc         1 LFG       0.082950
     31 H16          4.4830     1.7920    -0.5290 hc         1 LFG       0.082950
     32 H17          4.6910    -0.7370     1.2880 hc         1 LFG       0.099700
     33 H18         -4.9610     0.6630     0.5620 hc         1 LFG       0.039450
     34 H19         -5.7720     0.0920    -0.8890 hc         1 LFG       0.039450
     35 H9           4.9150    -0.3420    -1.7990 hc         1 LFG       0.082950
@<TRIPOS>BOND
     1     1     3 2   
     2     1    15 1   
     3     2     4 1   
     4     2     5 1   
     5     2    17 1   
     6     3    13 1   
     7     3    16 1   
     8     4    15 2   
     9     4    16 1   
    10     5     6 1   
    11     5    11 1   
    12     5    18 1   
    13     6     7 1   
    14     6    19 1   
    15     6    20 1   
    16     7    14 1   
    17     7    21 1   
    18     7    22 1   
    19     8    10 1   
    20     8    14 1   
    21     8    23 1   
    22     8    24 1   
    23     9    12 1   
    24     9    13 1   
    25     9    25 1   
    26     9    35 1   
    27    10    11 1   
    28    10    26 1   
    29    10    27 1   
    30    11    28 1   
    31    11    29 1   
    32    12    13 1   
    33    12    30 1   
    34    12    31 1   
    35    13    32 1   
    36    14    33 1   
    37    14    34 1   
@<TRIPOS>SUBSTRUCTURE
     1 LFG         1 TEMP              0 ****  ****    0 ROOT
