@<TRIPOS>MOLECULE
LFG
   35    37     1     0     0
SMALL
bcc


@<TRIPOS>ATOM
      1 N1           2.2880    -1.1430    -0.3950 nc         1 LFG      -0.344000
      2 N3          -0.3780     0.9870     0.1370 nu         1 LFG      -0.860900
      3 C4           2.8290    -0.1200     0.1470 cd         1 LFG       0.481700
      4 C5           0.7520     0.2760     0.0290 cd         1 LFG       0.712300
      5 C6          -1.6720     0.3650    -0.1290 c3         1 LFG       0.243500
      6 C7          -2.6760     1.4990    -0.3390 c3         1 LFG      -0.088400
      7 C8          -4.0290     1.0930    -0.9100 c3         1 LFG      -0.066400
      8 C10         -4.1650    -1.3900    -0.3450 c3         1 LFG      -0.072900
      9 C1           5.2760    -0.8140    -0.0060 cx         1 LFG      -0.106400
     10 C11         -3.0100    -1.7310     0.6020 c3         1 LFG      -0.066400
     11 C12         -2.0880    -0.5810     1.0050 c3         1 LFG      -0.088400
     12 C2           5.1550     0.4830    -0.7300 cx         1 LFG      -0.106400
     13 C3           4.2330     0.1710     0.4250 cx         1 LFG      -0.173000
     14 C9          -4.7870    -0.0050    -0.1680 c3         1 LFG      -0.072900
     15 N2           0.9300    -0.9020    -0.4800 nc         1 LFG      -0.440000
     16 O1           1.9020     0.8280     0.4490 os         1 LFG      -0.405800
     17 H1          -0.3660     1.7610     0.7840 hn         1 LFG       0.436800
     18 H2          -1.5600    -0.2000    -1.0600 h1         1 LFG       0.087700
     19 H3          -2.8250     2.0020     0.6240 hc         1 LFG       0.043450
     20 H4          -2.2300     2.2390    -1.0100 hc         1 LFG       0.043450
     21 H5          -4.6490     1.9930    -0.9490 hc         1 LFG       0.042450
     22 H6          -3.8980     0.7750    -1.9500 hc         1 LFG       0.042450
     23 H7          -3.8300    -1.4800    -1.3830 hc         1 LFG       0.039450
     24 H8          -4.9360    -2.1550    -0.2240 hc         1 LFG       0.039450
     25 H10          6.1150    -0.9560     0.6610 hc         1 LFG       0.082950
     26 H11         -3.4170    -2.1600     1.5220 hc         1 LFG       0.042450
     27 H12         -2.4100    -2.5210     0.1440 hc         1 LFG       0.042450
     28 H13         -1.1940    -1.0210     1.4510 hc         1 LFG       0.043450
     29 H14         -2.5540     0.0160     1.7960 hc         1 LFG       0.043450
     30 H15          5.9070     1.2440    -0.5680 hc         1 LFG       0.082950
     31 H16          4.7290     0.4730    -1.7250 hc         1 LFG       0.082950
     32 H17          4.4100     0.7130     1.3460 hc         1 LFG       0.099700
     33 H18         -4.8840     0.2450     0.8940 hc         1 LFG       0.039450
     34 H19         -5.8060    -0.0310    -0.5610 hc         1 LFG       0.039450
     35 H9           4.9410    -1.7120    -0.5080 hc         1 LFG       0.082950
@<TRIPOS>BOND
     1     1     3 2   
     2     1    15 1   
     3     2     4 1   
     4     2     5 1   
     5     2    17 1   
     6     3    13 1   
     7     3    16 1   
     8     4    15 2   
     9     4    16 1   
    10     5     6 1   
    11     5    11 1   
    12     5    18 1   
    13     6     7 1   
    14     6    19 1   
    15     6    20 1   
    16     7    14 1   
    17     7    21 1   
    18     7    22 1   
    19     8    10 1   
    20     8    14 1   
    21     8    23 1   
    22     8    24 1   
    23     9    12 1   
    24     9    13 1   
    25     9    25 1   
    26     9    35 1   
    27    10    11 1   
    28    10    26 1   
    29    10    27 1   
    30    11    28 1   
    31    11    29 1   
    32    12    13 1   
    33    12    30 1   
    34    12    31 1   
    35    13    32 1   
    36    14    33 1   
    37    14    34 1   
@<TRIPOS>SUBSTRUCTURE
     1 LFG         1 TEMP              0 ****  ****    0 ROOT
