@<TRIPOS>MOLECULE
LFI
   39    39     1     0     0
SMALL
bcc


@<TRIPOS>ATOM
      1 C10        -29.5620    57.8350    -3.0420 c3         1 LFI       0.011333
      2 C11        -32.5750    58.9100     3.1650 c3         1 LFI       0.011333
      3 C12        -31.4890    62.8910    -0.1800 c3         1 LFI       0.011333
      4 C1         -33.4210    59.9240    -2.9500 c6         1 LFI       0.252400
      5 C2         -34.2300    61.0440    -0.9780 c6         1 LFI       0.252400
      6 C3         -33.9680    58.6440    -1.0070 c6         1 LFI       0.252400
      7 C4         -31.8270    58.2290    -2.0820 c          1 LFI       0.684433
      8 C5         -33.6280    59.9320     1.1160 c          1 LFI       0.684433
      9 C6         -32.4460    62.0930    -2.4120 c          1 LFI       0.684433
     10 C7         -32.2710    63.2400    -1.4360 c3         1 LFI      -0.161400
     11 C8         -30.8670    58.5880    -3.2000 c3         1 LFI      -0.161400
     12 C9         -33.2030    58.6560     1.8170 c3         1 LFI      -0.161400
     13 N1         -33.0770    58.7750    -2.1400 n          1 LFI      -0.513800
     14 N2         -33.3560    61.1210    -2.1310 n          1 LFI      -0.513800
     15 N3         -33.9170    59.8530    -0.2080 n          1 LFI      -0.513800
     16 O1         -31.7740    62.0550    -3.4280 o          1 LFI      -0.586433
     17 O2         -31.5050    57.4560    -1.1990 o          1 LFI      -0.586433
     18 O3         -33.7200    60.9830     1.7280 o          1 LFI      -0.586433
     19 H1         -29.0550    58.0850    -2.1120 h1         1 LFI       0.085367
     20 H2         -29.6920    56.7580    -3.1020 h1         1 LFI       0.085367
     21 H4         -33.1860    59.5460     3.8010 h1         1 LFI       0.085367
     22 H5         -32.3860    57.9690     3.6770 h1         1 LFI       0.085367
     23 H7         -31.2360    63.8000     0.3600 h1         1 LFI       0.085367
     24 H8         -32.0290    62.2310     0.4930 h1         1 LFI       0.085367
     25 H10        -34.4460    59.7940    -3.3080 h2         1 LFI       0.077033
     26 H11        -32.7760    60.0210    -3.8140 h2         1 LFI       0.077033
     27 H12        -34.1560    61.9220    -0.3480 h2         1 LFI       0.077033
     28 H13        -35.2620    60.9730    -1.3350 h2         1 LFI       0.077033
     29 H14        -34.9850    58.5220    -1.3910 h2         1 LFI       0.077033
     30 H15        -33.7280    57.7620    -0.4270 h2         1 LFI       0.077033
     31 H16        -31.7580    64.0320    -1.9780 hc         1 LFI       0.082700
     32 H17        -33.2300    63.6550    -1.1130 hc         1 LFI       0.082700
     33 H18        -30.6820    59.6640    -3.1880 hc         1 LFI       0.082700
     34 H19        -31.3270    58.3590    -4.1640 hc         1 LFI       0.082700
     35 H20        -34.0920    58.0350     1.9810 hc         1 LFI       0.082700
     36 H21        -32.5290    58.0620     1.1990 hc         1 LFI       0.082700
     37 BR1        -28.3290    58.3280    -4.4920 br         1 LFI      -0.177067
     38 BR2        -29.7880    61.9870    -0.5780 br         1 LFI      -0.177067
     39 BR3        -30.8290    59.7990     2.9820 br         1 LFI      -0.177067
@<TRIPOS>BOND
     1     1    11 1   
     2     1    19 1   
     3     1    20 1   
     4     1    37 1   
     5     2    12 1   
     6     2    21 1   
     7     2    22 1   
     8     2    39 1   
     9     3    10 1   
    10     3    23 1   
    11     3    24 1   
    12     3    38 1   
    13     4    13 1   
    14     4    14 1   
    15     4    25 1   
    16     4    26 1   
    17     5    14 1   
    18     5    15 1   
    19     5    27 1   
    20     5    28 1   
    21     6    13 1   
    22     6    15 1   
    23     6    29 1   
    24     6    30 1   
    25     7    11 1   
    26     7    13 1   
    27     7    17 2   
    28     8    12 1   
    29     8    15 1   
    30     8    18 2   
    31     9    10 1   
    32     9    14 1   
    33     9    16 2   
    34    10    31 1   
    35    10    32 1   
    36    11    33 1   
    37    11    34 1   
    38    12    35 1   
    39    12    36 1   
@<TRIPOS>SUBSTRUCTURE
     1 LFI         1 TEMP              0 ****  ****    0 ROOT
