@<TRIPOS>MOLECULE
LFI
   39    39     1     0     0
SMALL
No Charge or Current Charge


@<TRIPOS>ATOM
      1 C10        -29.5740    57.4720    -3.2210 c3         1 LFI       0.093933
      2 C11        -32.4340    58.9810     3.1580 c3         1 LFI       0.093933
      3 C12        -31.5710    63.1470     0.0300 c3         1 LFI       0.093933
      4 C1         -33.3670    59.9630    -2.9970 c6         1 LFI       0.252400
      5 C2         -34.3900    61.0650    -1.0610 c6         1 LFI       0.252400
      6 C3         -34.0530    58.6290    -1.0630 c6         1 LFI       0.252400
      7 C4         -31.7970    58.1740    -2.0920 c          1 LFI       0.617433
      8 C5         -33.6510    59.9670     1.0850 c          1 LFI       0.617433
      9 C6         -32.3110    62.0880    -2.1640 c          1 LFI       0.617433
     10 C7         -32.3500    63.3470    -1.2880 c3         1 LFI      -0.161400
     11 C8         -30.8240    58.3730    -3.2610 c3         1 LFI      -0.161400
     12 C9         -33.1480    58.7130     1.8160 c3         1 LFI      -0.161400
     13 N1         -33.0610    58.7930    -2.1440 n          1 LFI      -0.446800
     14 N2         -33.3890    61.1760    -2.1520 n          1 LFI      -0.446800
     15 N3         -34.0890    59.8660    -0.2500 n          1 LFI      -0.446800
     16 O1         -31.3690    61.9130    -2.9240 o          1 LFI      -0.586433
     17 O2         -31.5050    57.4380    -1.1590 o          1 LFI      -0.586433
     18 O3         -33.7230    61.0390     1.6700 o          1 LFI      -0.586433
     19 H1         -28.9810    57.6600    -2.3160 h1         1 LFI       0.085367
     20 H2         -29.8520    56.4110    -3.2630 h1         1 LFI       0.085367
     21 H4         -33.0470    59.6040     3.8220 h1         1 LFI       0.085367
     22 H5         -32.1970    58.0360     3.6640 h1         1 LFI       0.085367
     23 H7         -31.7310    63.9970     0.7060 h1         1 LFI       0.085367
     24 H8         -31.8700    62.2230     0.5340 h1         1 LFI       0.085367
     25 H10        -34.3600    59.8250    -3.4500 h2         1 LFI       0.077033
     26 H11        -32.6380    60.0710    -3.8110 h2         1 LFI       0.077033
     27 H12        -34.3970    61.9590    -0.4260 h2         1 LFI       0.077033
     28 H13        -35.3910    60.9550    -1.5040 h2         1 LFI       0.077033
     29 H14        -35.0450    58.4720    -1.5130 h2         1 LFI       0.077033
     30 H15        -33.8200    57.7460    -0.4520 h2         1 LFI       0.077033
     31 H16        -31.8940    64.1800    -1.8340 hc         1 LFI       0.082700
     32 H17        -33.3800    63.6060    -1.0290 hc         1 LFI       0.082700
     33 H18        -30.5450    59.4310    -3.2890 hc         1 LFI       0.082700
     34 H19        -31.3800    58.2580    -4.1970 hc         1 LFI       0.082700
     35 H20        -34.0090    58.0510     1.9510 hc         1 LFI       0.082700
     36 H21        -32.5070    58.1310     1.1490 hc         1 LFI       0.082700
     37 Br1        -28.3860    57.8260    -4.7780 br         1 LFI      -0.259667
     38 Br2        -29.6020    63.0220    -0.2540 br         1 LFI      -0.259667
     39 Br3        -30.6980    59.9240     2.8810 br         1 LFI      -0.259667
@<TRIPOS>BOND
     1     1    11 1   
     2     1    19 1   
     3     1    20 1   
     4     1    37 1   
     5     2    12 1   
     6     2    21 1   
     7     2    22 1   
     8     2    39 1   
     9     3    10 1   
    10     3    23 1   
    11     3    24 1   
    12     3    38 1   
    13     4    13 1   
    14     4    14 1   
    15     4    25 1   
    16     4    26 1   
    17     5    14 1   
    18     5    15 1   
    19     5    27 1   
    20     5    28 1   
    21     6    13 1   
    22     6    15 1   
    23     6    29 1   
    24     6    30 1   
    25     7    11 1   
    26     7    13 1   
    27     7    17 2   
    28     8    12 1   
    29     8    15 1   
    30     8    18 2   
    31     9    10 1   
    32     9    14 1   
    33     9    16 2   
    34    10    31 1   
    35    10    32 1   
    36    11    33 1   
    37    11    34 1   
    38    12    35 1   
    39    12    36 1   
@<TRIPOS>SUBSTRUCTURE
     1 LFI         1 TEMP              0 ****  ****    0 ROOT
