@<TRIPOS>MOLECULE
LFJ
   37    39     1     0     0
SMALL
No Charge or Current Charge


@<TRIPOS>ATOM
      1 N1          -0.9520    -0.7490     0.1630 n          1 LFJ      -0.408800
      2 C4          -2.9710     1.5510    -0.4890 c2         1 LFJ      -0.059400
      3 C5          -5.1100     0.5030     0.1500 c          1 LFJ       0.608100
      4 C6          -5.5980     1.8630     0.6590 c3         1 LFJ      -0.177100
      5 C7          -3.2820    -0.8970    -0.8630 c3         1 LFJ       0.075000
      6 C8          -2.2100    -1.5400     0.0450 c3         1 LFJ       0.074000
      7 C10          2.7790    -1.1340     0.5640 ca         1 LFJ      -0.053000
      8 C13          3.9600     0.7460    -0.3880 ca         1 LFJ       0.071100
      9 C15          1.5880     0.5470    -0.7600 ca         1 LFJ      -0.084000
     10 C1           0.2870    -1.4320     0.2380 c          1 LFJ       0.623700
     11 C11          3.9550    -0.4050     0.3450 ca         1 LFJ       0.044100
     12 C12          6.0180     0.3920     0.3380 c5         1 LFJ       0.374600
     13 C14          2.7920     1.2540    -0.9650 ca         1 LFJ      -0.109000
     14 C2          -1.0910     0.5420     0.8790 c3         1 LFJ       0.147200
     15 C3          -1.7430     1.6190     0.0410 c2         1 LFJ      -0.284200
     16 C9           1.5640    -0.6440     0.0220 ca         1 LFJ      -0.147600
     17 N2          -3.7960     0.4120    -0.3830 n          1 LFJ      -0.349000
     18 O1           0.3310    -2.6470     0.3880 o          1 LFJ      -0.588100
     19 O2          -5.8440    -0.4750     0.2260 o          1 LFJ      -0.584100
     20 O3           5.1920    -0.7390     0.7940 os         1 LFJ      -0.341100
     21 O4           5.2000     1.2870    -0.4970 os         1 LFJ      -0.342100
     22 H1          -3.4110     2.3740    -1.0570 h4         1 LFJ       0.184000
     23 H2          -4.8540     2.2830     1.3450 hc         1 LFJ       0.063367
     24 H3          -5.5920     2.5780    -0.1710 hc         1 LFJ       0.063367
     25 H4          -6.5890     1.8060     1.1210 hc         1 LFJ       0.063367
     26 H5          -2.8430    -0.7470    -1.8580 h1         1 LFJ       0.071200
     27 H6          -4.1050    -1.6110    -0.9910 h1         1 LFJ       0.071200
     28 H7          -1.9860    -2.5310    -0.3720 h1         1 LFJ       0.072200
     29 H8          -2.6330    -1.6960     1.0460 h1         1 LFJ       0.072200
     30 H10          0.6790     0.9170    -1.2290 ha         1 LFJ       0.126000
     31 H11          6.3760     0.9470     1.2130 h2         1 LFJ       0.066700
     32 H12          2.8160     2.1620    -1.5620 ha         1 LFJ       0.136000
     33 H13         -1.7020     0.3750     1.7760 h1         1 LFJ       0.059200
     34 H14         -0.1150     0.8930     1.2380 h1         1 LFJ       0.059200
     35 H15         -1.1420     2.5220    -0.0790 ha         1 LFJ       0.187000
     36 H16          6.8680     0.0180    -0.2440 h2         1 LFJ       0.066700
     37 H9           2.8080    -2.0520     1.1480 ha         1 LFJ       0.149000
@<TRIPOS>BOND
     1     1     6 1   
     2     1    10 1   
     3     1    14 1   
     4     2    15 2   
     5     2    17 1   
     6     2    22 1   
     7     3     4 1   
     8     3    17 1   
     9     3    19 2   
    10     4    23 1   
    11     4    24 1   
    12     4    25 1   
    13     5     6 1   
    14     5    17 1   
    15     5    26 1   
    16     5    27 1   
    17     6    28 1   
    18     6    29 1   
    19     7    11 ar  
    20     7    16 ar  
    21     7    37 1   
    22     8    11 ar  
    23     8    13 ar  
    24     8    21 1   
    25     9    13 ar  
    26     9    16 ar  
    27     9    30 1   
    28    10    16 1   
    29    10    18 2   
    30    11    20 1   
    31    12    20 1   
    32    12    21 1   
    33    12    31 1   
    34    12    36 1   
    35    13    32 1   
    36    14    15 1   
    37    14    33 1   
    38    14    34 1   
    39    15    35 1   
@<TRIPOS>SUBSTRUCTURE
     1 LFJ         1 TEMP              0 ****  ****    0 ROOT
