@<TRIPOS>MOLECULE
LFJ
   37    39     1     0     0
SMALL
bcc


@<TRIPOS>ATOM
      1 N1          -0.9160    -0.8770     0.4530 n          1 LFJ      -0.475800
      2 C4          -2.7850     1.4940    -0.2870 c2         1 LFJ      -0.009400
      3 C5          -4.9810     0.5290    -0.0030 c          1 LFJ       0.675100
      4 C6          -5.4410     1.9200     0.3540 c3         1 LFJ      -0.177100
      5 C7          -3.1230    -0.9210    -0.6570 c3         1 LFJ       0.075000
      6 C8          -2.1890    -1.5620     0.3620 c3         1 LFJ       0.074000
      7 C10          2.6300    -1.1360     0.4350 ca         1 LFJ      -0.071000
      8 C13          3.7690     0.7920    -0.4630 ca         1 LFJ       0.071100
      9 C15          1.4540     0.5540    -0.8510 ca         1 LFJ      -0.102000
     10 C1           0.2080    -1.4610    -0.0220 c          1 LFJ       0.690700
     11 C11          3.7660    -0.3920     0.2590 ca         1 LFJ       0.044100
     12 C12          5.8140     0.4740     0.3530 c5         1 LFJ       0.328200
     13 C14          2.6290     1.2890    -1.0420 ca         1 LFJ      -0.127000
     14 C2          -0.9630     0.4250     1.0920 c3         1 LFJ       0.147200
     15 C3          -1.5740     1.5170     0.2600 c2         1 LFJ      -0.234200
     16 C9           1.4440    -0.6260    -0.1200 ca         1 LFJ      -0.147600
     17 N2          -3.6480     0.3810    -0.2710 n          1 LFJ      -0.416000
     18 O1           0.2500    -2.6320    -0.3760 o          1 LFJ      -0.588100
     19 O2          -5.7550    -0.4120    -0.0360 o          1 LFJ      -0.584100
     20 O3           5.0210    -0.6570     0.6920 os         1 LFJ      -0.317900
     21 O4           5.0220     1.2960    -0.4960 os         1 LFJ      -0.318900
     22 H1          -3.1470     2.3690    -0.8150 h4         1 LFJ       0.134000
     23 H2          -4.8650     2.3340     1.1820 hc         1 LFJ       0.063367
     24 H3          -5.3320     2.6030    -0.4890 hc         1 LFJ       0.063367
     25 H4          -6.4900     1.8900     0.6350 hc         1 LFJ       0.063367
     26 H5          -2.6030    -0.8210    -1.6120 h1         1 LFJ       0.071200
     27 H6          -3.9680    -1.5870    -0.8120 h1         1 LFJ       0.071200
     28 H7          -2.0170    -2.5940     0.0670 h1         1 LFJ       0.072200
     29 H8          -2.6630    -1.5770     1.3470 h1         1 LFJ       0.072200
     30 H10          0.5390     0.9180    -1.3010 ha         1 LFJ       0.144000
     31 H11          6.0820     1.0260     1.2590 h2         1 LFJ       0.066700
     32 H12          2.6320     2.2010    -1.6230 ha         1 LFJ       0.154000
     33 H13         -1.5460     0.3100     2.0120 h1         1 LFJ       0.059200
     34 H14          0.0350     0.7160     1.4050 h1         1 LFJ       0.059200
     35 H15         -0.9950     2.4230     0.1290 ha         1 LFJ       0.137000
     36 H16          6.7100     0.1520    -0.1770 h2         1 LFJ       0.066700
     37 H9           2.6400    -2.0670     0.9880 ha         1 LFJ       0.167000
@<TRIPOS>BOND
     1     1     6 1   
     2     1    10 1   
     3     1    14 1   
     4     2    15 2   
     5     2    17 1   
     6     2    22 1   
     7     3     4 1   
     8     3    17 1   
     9     3    19 2   
    10     4    23 1   
    11     4    24 1   
    12     4    25 1   
    13     5     6 1   
    14     5    17 1   
    15     5    26 1   
    16     5    27 1   
    17     6    28 1   
    18     6    29 1   
    19     7    11 ar  
    20     7    16 ar  
    21     7    37 1   
    22     8    11 ar  
    23     8    13 ar  
    24     8    21 1   
    25     9    13 ar  
    26     9    16 ar  
    27     9    30 1   
    28    10    16 1   
    29    10    18 2   
    30    11    20 1   
    31    12    20 1   
    32    12    21 1   
    33    12    31 1   
    34    12    36 1   
    35    13    32 1   
    36    14    15 1   
    37    14    33 1   
    38    14    34 1   
    39    15    35 1   
@<TRIPOS>SUBSTRUCTURE
     1 LFJ         1 TEMP              0 ****  ****    0 ROOT
