@<TRIPOS>MOLECULE
LFK
   28    29     1     0     0
SMALL
abcg2


@<TRIPOS>ATOM
      1 O8          -0.6300    -0.7380     1.4290 o          1 LFK      -0.462000
      2 C7          -0.9740    -0.3780     0.3340 c          1 LFK       0.600700
      3 C2           2.0980     0.3470    -0.1430 ca         1 LFK      -0.077000
      4 C1           3.4440     0.0280     0.0080 ca         1 LFK      -0.127600
      5 C6           3.8500    -1.2870    -0.2030 ca         1 LFK      -0.082000
      6 C5           2.9310    -2.2640    -0.5590 ca         1 LFK      -0.138000
      7 C4           1.5880    -1.9460    -0.7100 ca         1 LFK      -0.137000
      8 O11         -5.5260     0.2510     1.7050 oh         1 LFK      -0.534100
      9 C3           1.1940    -0.6360    -0.4990 ca         1 LFK       0.054100
     10 O1           3.9930     2.2550     0.5680 o          1 LFK      -0.716500
     11 O2           5.6340     0.7470     0.5140 o          1 LFK      -0.716500
     12 O3          -0.1330    -0.2910    -0.7040 os         1 LFK      -0.354200
     13 C21         -2.3570     0.0170    -0.0280 ca         1 LFK      -0.091600
     14 C31         -3.3190    -0.0360     0.9760 ca         1 LFK      -0.096000
     15 C41         -4.6340     0.3200     0.7000 ca         1 LFK       0.116100
     16 C51         -4.9800     0.7280    -0.5870 ca         1 LFK      -0.191000
     17 C61         -4.0140     0.7780    -1.5800 ca         1 LFK      -0.094000
     18 C11         -2.7000     0.4260    -1.3160 ca         1 LFK      -0.088000
     19 H1           1.7610     1.3650     0.0130 ha         1 LFK       0.141000
     20 H2           4.8940    -1.5450    -0.0910 ha         1 LFK       0.130000
     21 H3           3.2570    -3.2830    -0.7240 ha         1 LFK       0.089000
     22 H4           0.8650    -2.7000    -0.9920 ha         1 LFK       0.097000
     23 H5          -6.4000     0.5230     1.4020 ho         1 LFK       0.458000
     24 H7          -3.0510    -0.3520     1.9760 ha         1 LFK       0.150000
     25 H8          -6.0030     1.0050    -0.8150 ha         1 LFK       0.104000
     26 H9          -4.2960     1.0970    -2.5750 ha         1 LFK       0.110000
     27 H10         -1.9650     0.4710    -2.1050 ha         1 LFK       0.141000
     28 C8           4.4490     1.1080     0.4000 c          1 LFK       0.714600
@<TRIPOS>BOND
     1     1     2 2   
     2     2    12 1   
     3     2    13 1   
     4     3     4 ar  
     5     3     9 ar  
     6     3    19 1   
     7     4     5 ar  
     8     4    28 1   
     9     5     6 ar  
    10     5    20 1   
    11     6     7 ar  
    12     6    21 1   
    13     7     9 ar  
    14     7    22 1   
    15     8    15 1   
    16     8    23 1   
    17     9    12 1   
    18    10    28 1   
    19    11    28 1   
    20    13    14 ar  
    21    13    18 ar  
    22    14    15 ar  
    23    14    24 1   
    24    15    16 ar  
    25    16    17 ar  
    26    16    25 1   
    27    17    18 ar  
    28    17    26 1   
    29    18    27 1   
@<TRIPOS>SUBSTRUCTURE
     1 LFK         1 TEMP              0 ****  ****    0 ROOT
