@<TRIPOS>MOLECULE
LFK
   28    29     1     0     0
SMALL
No Charge or Current Charge


@<TRIPOS>ATOM
      1 O8          -0.5450    -0.1560     1.6120 o          1 LFK      -0.462000
      2 C7          -0.9390    -0.1880     0.4530 c          1 LFK       0.600700
      3 C2           2.0610     0.1590     0.1190 ca         1 LFK      -0.077000
      4 C1           3.4600    -0.0550     0.1660 ca         1 LFK      -0.127600
      5 C6           3.9880    -1.2070    -0.4660 ca         1 LFK      -0.082000
      6 C5           3.1420    -2.1120    -1.1310 ca         1 LFK      -0.138000
      7 C4           1.7580    -1.8860    -1.1690 ca         1 LFK      -0.137000
      8 O11         -5.5570     0.9910     1.7110 oh         1 LFK      -0.534100
      9 C3           1.2150    -0.7590    -0.5340 ca         1 LFK       0.054100
     10 O1           3.8780     1.9300     1.3800 o          1 LFK      -0.716500
     11 O2           5.5730     0.6970     0.9120 o          1 LFK      -0.716500
     12 O3          -0.1440    -0.5520    -0.6080 os         1 LFK      -0.354200
     13 C21         -2.3820     0.0700     0.0720 ca         1 LFK      -0.091600
     14 C31         -3.3230     0.4150     1.0690 ca         1 LFK      -0.096000
     15 C41         -4.6650     0.6600     0.7360 ca         1 LFK       0.116100
     16 C51         -5.0890     0.5640    -0.5980 ca         1 LFK      -0.191000
     17 C61         -4.1660     0.2230    -1.6010 ca         1 LFK      -0.094000
     18 C11         -2.8220    -0.0220    -1.2710 ca         1 LFK      -0.088000
     19 H1           1.6320     1.0430     0.5850 ha         1 LFK       0.141000
     20 H2           5.0580    -1.4010    -0.4490 ha         1 LFK       0.130000
     21 H3           3.5620    -2.9890    -1.6180 ha         1 LFK       0.089000
     22 H4           1.1060    -2.5850    -1.6870 ha         1 LFK       0.097000
     23 H5          -6.4360     1.1230     1.2950 ho         1 LFK       0.458000
     24 H7          -3.0160     0.4950     2.1090 ha         1 LFK       0.150000
     25 H8          -6.1260     0.7520    -0.8640 ha         1 LFK       0.104000
     26 H9          -4.4920     0.1490    -2.6360 ha         1 LFK       0.110000
     27 H10         -2.1280    -0.2840    -2.0670 ha         1 LFK       0.141000
     28 C8           4.3740     0.9320     0.8740 c          1 LFK       0.714600
@<TRIPOS>BOND
     1     1     2 2   
     2     2    12 1   
     3     2    13 1   
     4     3     4 ar  
     5     3     9 ar  
     6     3    19 1   
     7     4     5 ar  
     8     4    28 1   
     9     5     6 ar  
    10     5    20 1   
    11     6     7 ar  
    12     6    21 1   
    13     7     9 ar  
    14     7    22 1   
    15     8    15 1   
    16     8    23 1   
    17     9    12 1   
    18    10    28 1   
    19    11    28 1   
    20    13    14 ar  
    21    13    18 ar  
    22    14    15 ar  
    23    14    24 1   
    24    15    16 ar  
    25    16    17 ar  
    26    16    25 1   
    27    17    18 ar  
    28    17    26 1   
    29    18    27 1   
@<TRIPOS>SUBSTRUCTURE
     1 LFK         1 TEMP              0 ****  ****    0 ROOT
