@<TRIPOS>MOLECULE
LFL
   53    55     1     0     0
SMALL
No Charge or Current Charge


@<TRIPOS>ATOM
      1 C1          67.0770    67.1590    80.9620 ca         1 LFL       0.148100
      2 C2          66.5610    67.4890    79.6900 ca         1 LFL      -0.174000
      3 C3          66.9920    66.7860    78.5520 ca         1 LFL      -0.062500
      4 C4          67.9400    65.7520    78.6680 ca         1 LFL      -0.120300
      5 C5          68.4510    65.4240    79.9380 ca         1 LFL      -0.062500
      6 C6          68.0210    66.1260    81.0770 ca         1 LFL      -0.174000
      7 C7          68.4050    64.9970    77.4260 c3         1 LFL       0.024200
      8 C8          69.1450    65.9110    76.4490 ca         1 LFL      -0.070300
      9 C9          70.5010    66.2610    76.6400 ca         1 LFL       0.134000
     10 Cl1         71.4280    65.6490    78.0110 cl         1 LFL      -0.199000
     11 C10         68.4530    66.4320    75.3360 ca         1 LFL      -0.080000
     12 C11         69.0950    67.2940    74.4230 ca         1 LFL      -0.093300
     13 C12         70.4450    67.6340    74.6270 ca         1 LFL      -0.094000
     14 C13         71.1430    67.1170    75.7310 ca         1 LFL      -0.107000
     15 C14         68.3290    67.8640    73.2230 c6         1 LFL       0.180600
     16 C15         67.9580    66.7730    72.1710 c6         1 LFL       0.102300
     17 C16         67.1190    67.4170    71.0280 c6         1 LFL       0.181300
     18 C17         65.8770    68.1700    71.6120 c6         1 LFL       0.163300
     19 C18         66.3590    69.1740    72.7100 c6         1 LFL       0.253300
     20 O1          67.1230    68.4840    73.7160 os         1 LFL      -0.431000
     21 O2          69.1300    66.1260    71.6240 oh         1 LFL      -0.721000
     22 O3          65.1320    68.8560    70.5750 oh         1 LFL      -0.696000
     23 S1          64.9520    70.0290    73.5560 ss         1 LFL      -0.398000
     24 O4          66.7450    66.3880    70.0930 oh         1 LFL      -0.639000
     25 C19         65.8890    71.0960    74.7420 c3         1 LFL       0.042900
     26 O5          66.6930    67.8130    82.1140 os         1 LFL      -0.350100
     27 C20         65.7360    68.8850    82.1030 c3         1 LFL       0.165600
     28 C21         65.5600    69.3660    83.5520 c3         1 LFL      -0.095100
     29 H1          65.8290    68.2820    79.5660 ha         1 LFL       0.120500
     30 H2          66.5870    67.0490    77.5760 ha         1 LFL       0.114000
     31 H3          69.1850    64.6270    80.0460 ha         1 LFL       0.114000
     32 H4          68.4210    65.8690    82.0540 ha         1 LFL       0.120500
     33 H5          67.5350    64.5470    76.9330 hc         1 LFL       0.059200
     34 H6          69.0400    64.1460    77.7020 hc         1 LFL       0.059200
     35 H7          67.4060    66.1780    75.1860 ha         1 LFL       0.131000
     36 H8          70.9550    68.3000    73.9340 ha         1 LFL       0.123000
     37 H9          72.1860    67.3830    75.8850 ha         1 LFL       0.132000
     38 H10         68.9440    68.6390    72.7410 h1         1 LFL       0.056700
     39 H11         67.3270    66.0250    72.6750 h1         1 LFL       0.058700
     40 H12         67.7550    68.1590    70.5220 h1         1 LFL       0.051700
     41 H13         65.2310    67.4270    72.1030 h1         1 LFL       0.063700
     42 H14         66.9780    69.9580    72.2490 h2         1 LFL       0.063700
     43 H15         69.6410    65.7570    72.3840 ho         1 LFL       0.519000
     44 H16         64.3870    69.3180    71.0260 ho         1 LFL       0.519000
     45 H17         67.5440    65.8150    70.0340 ho         1 LFL       0.458000
     46 H18         65.1870    71.7110    75.3210 h1         1 LFL       0.067033
     47 H19         66.4680    70.4700    75.4330 h1         1 LFL       0.067033
     48 H20         66.5740    71.7540    74.1930 h1         1 LFL       0.067033
     49 H21         66.0910    69.7190    81.4830 h1         1 LFL       0.032700
     50 H22         64.7700    68.5410    81.7130 h1         1 LFL       0.032700
     51 H23         64.8350    70.1880    83.5930 hc         1 LFL       0.047033
     52 H24         65.1930    68.5510    84.1880 hc         1 LFL       0.047033
     53 H25         66.5120    69.7270    83.9580 hc         1 LFL       0.047033
@<TRIPOS>BOND
     1     1     2 ar  
     2     1     6 ar  
     3     1    26 1   
     4     2     3 ar  
     5     2    29 1   
     6     3     4 ar  
     7     3    30 1   
     8     4     5 ar  
     9     4     7 1   
    10     5     6 ar  
    11     5    31 1   
    12     6    32 1   
    13     7     8 1   
    14     7    33 1   
    15     7    34 1   
    16     8     9 ar  
    17     8    11 ar  
    18     9    10 1   
    19     9    14 ar  
    20    11    12 ar  
    21    11    35 1   
    22    12    13 ar  
    23    12    15 1   
    24    13    14 ar  
    25    13    36 1   
    26    14    37 1   
    27    15    16 1   
    28    15    20 1   
    29    15    38 1   
    30    16    17 1   
    31    16    21 1   
    32    16    39 1   
    33    17    18 1   
    34    17    24 1   
    35    17    40 1   
    36    18    19 1   
    37    18    22 1   
    38    18    41 1   
    39    19    20 1   
    40    19    23 1   
    41    19    42 1   
    42    21    43 1   
    43    22    44 1   
    44    23    25 1   
    45    24    45 1   
    46    25    46 1   
    47    25    47 1   
    48    25    48 1   
    49    26    27 1   
    50    27    28 1   
    51    27    49 1   
    52    27    50 1   
    53    28    51 1   
    54    28    52 1   
    55    28    53 1   
@<TRIPOS>SUBSTRUCTURE
     1 LFL         1 TEMP              0 ****  ****    0 ROOT
