@<TRIPOS>MOLECULE
LFL
   53    55     1     0     0
SMALL
abcg2


@<TRIPOS>ATOM
      1 C1          67.1090    67.1480    81.0610 ca         1 LFL       0.148100
      2 C2          66.7260    67.6460    79.8160 ca         1 LFL      -0.174000
      3 C3          67.0510    66.9430    78.6630 ca         1 LFL      -0.062500
      4 C4          67.7540    65.7460    78.7080 ca         1 LFL      -0.120300
      5 C5          68.1260    65.2610    79.9590 ca         1 LFL      -0.062500
      6 C6          67.8100    65.9440    81.1210 ca         1 LFL      -0.174000
      7 C7          68.0940    64.9990    77.4390 c3         1 LFL       0.024200
      8 C8          68.9070    65.8370    76.4900 ca         1 LFL      -0.070300
      9 C9          70.2660    66.0780    76.6790 ca         1 LFL       0.134000
     10 CL1         71.0960    65.3450    78.0140 cl         1 LFL      -0.199000
     11 C10         68.2960    66.4500    75.4010 ca         1 LFL      -0.080000
     12 C11         68.9900    67.2930    74.5400 ca         1 LFL      -0.093300
     13 C12         70.3440    67.5100    74.7610 ca         1 LFL      -0.094000
     14 C13         70.9870    66.8970    75.8260 ca         1 LFL      -0.107000
     15 C14         68.3010    67.9240    73.3650 c6         1 LFL       0.180600
     16 C15         68.2320    66.9670    72.1670 c6         1 LFL       0.102300
     17 C16         67.4780    67.6300    71.0190 c6         1 LFL       0.181300
     18 C17         66.1060    68.0860    71.4940 c6         1 LFL       0.163300
     19 C18         66.2820    68.9530    72.7490 c6         1 LFL       0.253300
     20 O1          66.9910    68.2800    73.7550 os         1 LFL      -0.431000
     21 O2          69.5150    66.6430    71.6950 oh         1 LFL      -0.721000
     22 O3          65.5050    68.8090    70.4550 oh         1 LFL      -0.696000
     23 S1          64.6540    69.3800    73.3950 ss         1 LFL      -0.398000
     24 O4          67.3030    66.7530    69.9380 oh         1 LFL      -0.639000
     25 C19         65.0590    70.8480    74.3690 c3         1 LFL       0.042900
     26 O5          66.8500    67.7520    82.2360 os         1 LFL      -0.350100
     27 C20         66.1950    69.0120    82.2320 c3         1 LFL       0.165600
     28 C21         66.0760    69.4840    83.6620 c3         1 LFL      -0.095100
     29 H1          66.1760    68.5730    79.7230 ha         1 LFL       0.120500
     30 H2          66.7430    67.3520    77.7070 ha         1 LFL       0.114000
     31 H3          68.6780    64.3310    80.0300 ha         1 LFL       0.114000
     32 H4          68.1110    65.5500    82.0840 ha         1 LFL       0.120500
     33 H5          67.1750    64.6970    76.9320 hc         1 LFL       0.059200
     34 H6          68.6250    64.0780    77.6880 hc         1 LFL       0.059200
     35 H7          67.2410    66.2620    75.2390 ha         1 LFL       0.131000
     36 H8          70.9050    68.1680    74.1100 ha         1 LFL       0.123000
     37 H9          72.0420    67.0670    75.9950 ha         1 LFL       0.132000
     38 H10         68.8640    68.8190    73.0550 h1         1 LFL       0.056700
     39 H11         67.6780    66.0680    72.4760 h1         1 LFL       0.058700
     40 H12         68.0460    68.5260    70.7150 h1         1 LFL       0.051700
     41 H13         65.5180    67.1960    71.7690 h1         1 LFL       0.063700
     42 H14         66.7980    69.8840    72.4680 h2         1 LFL       0.063700
     43 H15         69.8780    65.9340    72.2340 ho         1 LFL       0.519000
     44 H16         64.6320    69.0970    70.7470 ho         1 LFL       0.519000
     45 H17         68.1740    66.4450    69.6640 ho         1 LFL       0.458000
     46 H18         64.1300    71.2190    74.7950 h1         1 LFL       0.067033
     47 H19         65.7420    70.6010    75.1790 h1         1 LFL       0.067033
     48 H20         65.4930    71.6240    73.7420 h1         1 LFL       0.067033
     49 H21         66.7660    69.7350    81.6390 h1         1 LFL       0.032700
     50 H22         65.2030    68.9240    81.7760 h1         1 LFL       0.032700
     51 H23         65.5760    70.4520    83.6820 hc         1 LFL       0.047033
     52 H24         65.4870    68.7910    84.2630 hc         1 LFL       0.047033
     53 H25         67.0550    69.6030    84.1260 hc         1 LFL       0.047033
@<TRIPOS>BOND
     1     1     2 ar  
     2     1     6 ar  
     3     1    26 1   
     4     2     3 ar  
     5     2    29 1   
     6     3     4 ar  
     7     3    30 1   
     8     4     5 ar  
     9     4     7 1   
    10     5     6 ar  
    11     5    31 1   
    12     6    32 1   
    13     7     8 1   
    14     7    33 1   
    15     7    34 1   
    16     8     9 ar  
    17     8    11 ar  
    18     9    10 1   
    19     9    14 ar  
    20    11    12 ar  
    21    11    35 1   
    22    12    13 ar  
    23    12    15 1   
    24    13    14 ar  
    25    13    36 1   
    26    14    37 1   
    27    15    16 1   
    28    15    20 1   
    29    15    38 1   
    30    16    17 1   
    31    16    21 1   
    32    16    39 1   
    33    17    18 1   
    34    17    24 1   
    35    17    40 1   
    36    18    19 1   
    37    18    22 1   
    38    18    41 1   
    39    19    20 1   
    40    19    23 1   
    41    19    42 1   
    42    21    43 1   
    43    22    44 1   
    44    23    25 1   
    45    24    45 1   
    46    25    46 1   
    47    25    47 1   
    48    25    48 1   
    49    26    27 1   
    50    27    28 1   
    51    27    49 1   
    52    27    50 1   
    53    28    51 1   
    54    28    52 1   
    55    28    53 1   
@<TRIPOS>SUBSTRUCTURE
     1 LFL         1 TEMP              0 ****  ****    0 ROOT
