@<TRIPOS>MOLECULE
LFM
   34    36     1     0     0
SMALL
No Charge or Current Charge


@<TRIPOS>ATOM
      1 N1          -0.5660    -0.6800    -0.0270 ns         1 LFM      -0.513900
      2 N3           3.5890     1.1580    -0.0820 na         1 LFM       0.065800
      3 C4          -3.0160    -0.7570     0.0150 ca         1 LFM      -0.130300
      4 C5          -1.7270    -1.5620     0.0100 c3         1 LFM       0.159300
      5 C6           0.7360    -1.1160    -0.0380 c          1 LFM       0.658700
      6 C7           1.7220    -0.0300    -0.0770 cc         1 LFM      -0.316600
      7 C8           1.4860     1.3610    -0.1040 cc         1 LFM       0.290900
      8 C10          5.8220     0.2190     0.4370 c6         1 LFM      -0.140400
      9 C13         -3.6350    -0.4020    -1.2010 ca         1 LFM      -0.070000
     10 C1          -5.3960     0.7430     0.0230 ca         1 LFM       0.178000
     11 C11          5.2910    -1.0800    -0.2280 c6         1 LFM       0.150600
     12 C12          3.0700    -0.1290    -0.0890 cd         1 LFM       0.145100
     13 C14         -4.8250     0.3470    -1.1960 ca         1 LFM      -0.156000
     14 C2          -4.7850     0.3960     1.2380 ca         1 LFM      -0.156000
     15 C3          -3.5950    -0.3530     1.2350 ca         1 LFM      -0.070000
     16 C9           5.0330     1.4610    -0.0620 c6         1 LFM       0.088600
     17 F1          -6.5390     1.4630     0.0270 f          1 LFM      -0.178000
     18 N2           2.5820     2.1140    -0.1090 nd         1 LFM      -0.521800
     19 O1           1.0200    -2.3040    -0.0170 o          1 LFM      -0.611100
     20 O2           3.8730    -1.2320     0.0170 os         1 LFM      -0.282100
     21 H1          -0.7230     0.3180    -0.0460 hn         1 LFM       0.315500
     22 H2          -1.7020    -2.2240    -0.8660 h1         1 LFM       0.056700
     23 H3          -1.6730    -2.1880     0.9110 h1         1 LFM       0.056700
     24 H4           0.5260     1.8620    -0.1090 h4         1 LFM       0.036100
     25 H5           5.7200     0.1310     1.5270 hc         1 LFM       0.073700
     26 H6           6.8930     0.3440     0.2300 hc         1 LFM       0.073700
     27 H7          -3.1930    -0.7060    -2.1490 ha         1 LFM       0.122000
     28 H8           5.4560    -1.0340    -1.3140 h1         1 LFM       0.070700
     29 H9           5.8200    -1.9620     0.1590 h1         1 LFM       0.070700
     30 H10         -5.3030     0.6210    -2.1320 ha         1 LFM       0.134000
     31 H11         -5.2330     0.7080     2.1780 ha         1 LFM       0.134000
     32 H12         -3.1230    -0.6180     2.1790 ha         1 LFM       0.122000
     33 H13          5.3460     1.7210    -1.0820 h1         1 LFM       0.072700
     34 H14          5.2240     2.3260     0.5880 h1         1 LFM       0.072700
@<TRIPOS>BOND
     1     1     4 1   
     2     1     5 1   
     3     1    21 1   
     4     2    12 1   
     5     2    16 1   
     6     2    18 1   
     7     3     4 1   
     8     3     9 ar  
     9     3    15 ar  
    10     4    22 1   
    11     4    23 1   
    12     5     6 1   
    13     5    19 2   
    14     6     7 1   
    15     6    12 2   
    16     7    18 2   
    17     7    24 1   
    18     8    11 1   
    19     8    16 1   
    20     8    25 1   
    21     8    26 1   
    22     9    13 ar  
    23     9    27 1   
    24    10    13 ar  
    25    10    14 ar  
    26    10    17 1   
    27    11    20 1   
    28    11    28 1   
    29    11    29 1   
    30    12    20 1   
    31    13    30 1   
    32    14    15 ar  
    33    14    31 1   
    34    15    32 1   
    35    16    33 1   
    36    16    34 1   
@<TRIPOS>SUBSTRUCTURE
     1 LFM         1 TEMP              0 ****  ****    0 ROOT
