@<TRIPOS>MOLECULE
LFM
   34    36     1     0     0
SMALL
bcc


@<TRIPOS>ATOM
      1 N1          -0.5860    -0.5490     0.1800 ns         1 LFM      -0.580900
      2 N3           3.6480     1.1340     0.0250 na         1 LFM       0.044400
      3 C4          -2.9930    -0.7650     0.0790 ca         1 LFM      -0.130300
      4 C5          -1.6860    -1.4920     0.2320 c3         1 LFM       0.159300
      5 C6           0.7000    -0.9540     0.1560 c          1 LFM       0.725700
      6 C7           1.7080     0.1050     0.1270 cc         1 LFM      -0.381900
      7 C8           1.5830     1.5090     0.2270 cc         1 LFM       0.356200
      8 C10          5.8000     0.1030     0.2340 c6         1 LFM      -0.140400
      9 C13         -3.4820    -0.4490    -1.1860 ca         1 LFM      -0.088000
     10 C1          -5.3720     0.6140    -0.2060 ca         1 LFM       0.142900
     11 C11          5.1510    -1.0470    -0.5060 c6         1 LFM       0.127400
     12 C12          3.0800    -0.0780    -0.0050 cd         1 LFM       0.195800
     13 C14         -4.6760     0.2410    -1.3400 ca         1 LFM      -0.174000
     14 C2          -4.9190     0.3200     1.0650 ca         1 LFM      -0.174000
     15 C3          -3.7220    -0.3700     1.1960 ca         1 LFM      -0.088000
     16 C9           5.0680     1.3980    -0.0760 c6         1 LFM       0.059300
     17 F1          -6.5290     1.2800    -0.3460 f          1 LFM      -0.142900
     18 N2           2.7420     2.1180     0.1650 nd         1 LFM      -0.521800
     19 O1           1.0020    -2.1440     0.1570 o          1 LFM      -0.611100
     20 O2           3.7690    -1.1970    -0.1370 os         1 LFM      -0.258900
     21 H1          -0.8070     0.4330     0.1790 hn         1 LFM       0.315500
     22 H2          -1.5740    -2.2310    -0.5640 h1         1 LFM       0.056700
     23 H3          -1.6740    -2.0410     1.1780 h1         1 LFM       0.056700
     24 H4           0.6830     2.0930     0.3530 h4         1 LFM       0.036100
     25 H5           5.7950    -0.0910     1.3080 hc         1 LFM       0.073700
     26 H6           6.8400     0.1870    -0.0800 hc         1 LFM       0.073700
     27 H7          -2.9300    -0.7480    -2.0680 ha         1 LFM       0.140000
     28 H8           5.2100    -0.8960    -1.5880 h1         1 LFM       0.070700
     29 H9           5.6210    -1.9960    -0.2630 h1         1 LFM       0.070700
     30 H10         -5.0580     0.4790    -2.3240 ha         1 LFM       0.152000
     31 H11         -5.4880     0.6190     1.9350 ha         1 LFM       0.152000
     32 H12         -3.3560    -0.6060     2.1870 ha         1 LFM       0.140000
     33 H13          5.3020     1.7530    -1.0810 h1         1 LFM       0.072700
     34 H14          5.3260     2.1840     0.6320 h1         1 LFM       0.072700
@<TRIPOS>BOND
     1     1     4 1   
     2     1     5 1   
     3     1    21 1   
     4     2    12 1   
     5     2    16 1   
     6     2    18 1   
     7     3     4 1   
     8     3     9 ar  
     9     3    15 ar  
    10     4    22 1   
    11     4    23 1   
    12     5     6 1   
    13     5    19 2   
    14     6     7 1   
    15     6    12 2   
    16     7    18 2   
    17     7    24 1   
    18     8    11 1   
    19     8    16 1   
    20     8    25 1   
    21     8    26 1   
    22     9    13 ar  
    23     9    27 1   
    24    10    13 ar  
    25    10    14 ar  
    26    10    17 1   
    27    11    20 1   
    28    11    28 1   
    29    11    29 1   
    30    12    20 1   
    31    13    30 1   
    32    14    15 ar  
    33    14    31 1   
    34    15    32 1   
    35    16    33 1   
    36    16    34 1   
@<TRIPOS>SUBSTRUCTURE
     1 LFM         1 TEMP              0 ****  ****    0 ROOT
