@<TRIPOS>MOLECULE
LFN
   31    33     1     0     0
SMALL
No Charge or Current Charge


@<TRIPOS>ATOM
      1 N1          -2.4360     1.2730    -0.0020 nc         1 LFN      -0.461400
      2 C2          -3.6650     0.6460     0.0070 c          1 LFN       0.734400
      3 C10         -1.2830     0.6080     0.0000 cd         1 LFN       0.118000
      4 O2          -4.7120     1.2660     0.0050 o          1 LFN      -0.508000
      5 N3          -3.6620    -0.7130     0.0170 ns         1 LFN      -0.498500
      6 C4          -2.5840    -1.5540     0.0210 c          1 LFN       0.483500
      7 O4          -2.7400    -2.7680     0.0310 o          1 LFN      -0.488000
      8 C4A         -1.2630    -0.8380     0.0120 cd         1 LFN       0.210500
      9 N5          -0.1380    -1.5650     0.0140 nc         1 LFN      -0.518000
     10 C5A          1.0240    -0.7820     0.0050 ca         1 LFN       0.161000
     11 C6           2.2390    -1.4940     0.0060 ca         1 LFN      -0.016000
     12 C9A          1.0560     0.6390    -0.0070 ca         1 LFN       0.004000
     13 C7           3.4860    -0.8460    -0.0030 ca         1 LFN      -0.105300
     14 C7M          4.7670    -1.6770    -0.0000 c3         1 LFN      -0.045800
     15 C8           3.5260     0.5610    -0.0140 ca         1 LFN      -0.000300
     16 C8M          4.8540     1.3130    -0.0240 c3         1 LFN      -0.060800
     17 C9           2.3200     1.2850    -0.0160 ca         1 LFN      -0.164000
     18 N10         -0.1290     1.4070    -0.0090 na         1 LFN      -0.014000
     19 C1          -0.0920     2.8940    -0.0200 c3         1 LFN       0.039900
     20 H3          -4.5720    -1.1480     0.0230 hn         1 LFN       0.340500
     21 H6           2.2050    -2.5810     0.0150 ha         1 LFN       0.143000
     22 H7M1         5.3790    -1.4590     0.8830 hc         1 LFN       0.047700
     23 H7M2         4.5560    -2.7540     0.0090 hc         1 LFN       0.047700
     24 H7M3         5.3740    -1.4730    -0.8900 hc         1 LFN       0.047700
     25 H8M1         5.4510     1.0710     0.8620 hc         1 LFN       0.053367
     26 H8M2         5.4450     1.0570    -0.9110 hc         1 LFN       0.053367
     27 H8M3         4.7100     2.4000    -0.0320 hc         1 LFN       0.053367
     28 H9           2.3920     2.3690    -0.0250 ha         1 LFN       0.128000
     29 H1'1         0.4300     3.2400    -0.9200 h1         1 LFN       0.070367
     30 H1'2        -1.0970     3.3300    -0.0190 h1         1 LFN       0.070367
     31 H1'3         0.4370     3.2540     0.8700 h1         1 LFN       0.070367
@<TRIPOS>BOND
     1     1     2 1   
     2     1     3 2   
     3     2     4 2   
     4     2     5 1   
     5     3     8 1   
     6     3    18 1   
     7     5     6 1   
     8     5    20 1   
     9     6     7 2   
    10     6     8 1   
    11     8     9 2   
    12     9    10 1   
    13    10    11 ar  
    14    10    12 ar  
    15    11    13 ar  
    16    11    21 1   
    17    12    17 ar  
    18    12    18 1   
    19    13    14 1   
    20    13    15 ar  
    21    14    22 1   
    22    14    23 1   
    23    14    24 1   
    24    15    16 1   
    25    15    17 ar  
    26    16    25 1   
    27    16    26 1   
    28    16    27 1   
    29    17    28 1   
    30    18    19 1   
    31    19    29 1   
    32    19    30 1   
    33    19    31 1   
@<TRIPOS>SUBSTRUCTURE
     1 LFN         1 TEMP              0 ****  ****    0 ROOT
