@<TRIPOS>MOLECULE
LFN
   31    33     1     0     0
SMALL
abcg2


@<TRIPOS>ATOM
      1 N1          -2.4210     1.3530    -0.0050 nc         1 LFN      -0.461400
      2 C2          -3.6090     0.6960    -0.0000 c          1 LFN       0.734400
      3 C10         -1.3060     0.6780     0.0010 cd         1 LFN       0.118000
      4 O2          -4.6780     1.2750    -0.0080 o          1 LFN      -0.508000
      5 N3          -3.6050    -0.7010     0.0140 ns         1 LFN      -0.498500
      6 C4          -2.5110    -1.5110     0.0220 c          1 LFN       0.483500
      7 O4          -2.5770    -2.7200     0.0330 o          1 LFN      -0.488000
      8 C4A         -1.2320    -0.7640     0.0150 cd         1 LFN       0.210500
      9 N5          -0.1340    -1.4380     0.0190 nc         1 LFN      -0.518000
     10 C5A          1.0370    -0.7630     0.0090 ca         1 LFN       0.161000
     11 C6           2.2410    -1.4870     0.0100 ca         1 LFN      -0.016000
     12 C9A          1.0710     0.6450    -0.0030 ca         1 LFN       0.004000
     13 C7           3.4590    -0.8570    -0.0010 ca         1 LFN      -0.105300
     14 C7M          4.7320    -1.6450    -0.0000 c3         1 LFN      -0.045800
     15 C8           3.4870     0.5620    -0.0140 ca         1 LFN      -0.000300
     16 C8M          4.7980     1.2800    -0.0290 c3         1 LFN      -0.060800
     17 C9           2.3110     1.2880    -0.0130 ca         1 LFN      -0.164000
     18 N10         -0.1190     1.3340    -0.0050 na         1 LFN      -0.014000
     19 C1          -0.0940     2.7930    -0.0150 c3         1 LFN       0.039900
     20 H3          -4.5130    -1.1520     0.0140 hn         1 LFN       0.340500
     21 H6           2.1750    -2.5680     0.0200 ha         1 LFN       0.143000
     22 H7M1         5.3460    -1.4170     0.8740 hc         1 LFN       0.047700
     23 H7M2         4.5300    -2.7140     0.0070 hc         1 LFN       0.047700
     24 H7M3         5.3400    -1.4270    -0.8800 hc         1 LFN       0.047700
     25 H8M1         5.4010     1.0200     0.8420 hc         1 LFN       0.053367
     26 H8M2         5.3840     1.0100    -0.9100 hc         1 LFN       0.053367
     27 H8M3         4.6620     2.3600    -0.0350 hc         1 LFN       0.053367
     28 H9           2.3740     2.3660    -0.0230 ha         1 LFN       0.128000
     29 H1'1         0.4150     3.1470    -0.9090 h1         1 LFN       0.070367
     30 H1'2        -1.1110     3.1610    -0.0110 h1         1 LFN       0.070367
     31 H1'3         0.4270     3.1580     0.8680 h1         1 LFN       0.070367
@<TRIPOS>BOND
     1     1     2 1   
     2     1     3 2   
     3     2     4 2   
     4     2     5 1   
     5     3     8 1   
     6     3    18 1   
     7     5     6 1   
     8     5    20 1   
     9     6     7 2   
    10     6     8 1   
    11     8     9 2   
    12     9    10 1   
    13    10    11 ar  
    14    10    12 ar  
    15    11    13 ar  
    16    11    21 1   
    17    12    17 ar  
    18    12    18 1   
    19    13    14 1   
    20    13    15 ar  
    21    14    22 1   
    22    14    23 1   
    23    14    24 1   
    24    15    16 1   
    25    15    17 ar  
    26    16    25 1   
    27    16    26 1   
    28    16    27 1   
    29    17    28 1   
    30    18    19 1   
    31    19    29 1   
    32    19    30 1   
    33    19    31 1   
@<TRIPOS>SUBSTRUCTURE
     1 LFN         1 TEMP              0 ****  ****    0 ROOT
