@<TRIPOS>MOLECULE
LFO
   26    27     1     0     0
SMALL
bcc


@<TRIPOS>ATOM
      1 N1          86.3490    -4.9400    84.0840 ns         1 LFO      -0.580900
      2 C4          86.0830    -4.5830    86.9940 cc         1 LFO      -0.074100
      3 C5          85.4940    -3.9040    89.3180 c3         1 LFO       0.032600
      4 C6          86.9350    -5.8220    88.6230 ca         1 LFO      -0.062200
      5 C7          87.2760    -6.3570    89.8630 ca         1 LFO      -0.146000
      6 C8          88.1040    -7.4620    89.8680 ca         1 LFO      -0.110000
      7 C10         88.2370    -7.4790    87.4430 ca         1 LFO      -0.064000
      8 C1          86.5050    -5.0140    82.6520 c3         1 LFO       0.099300
      9 C2          87.0570    -5.7240    84.9210 c          1 LFO       0.709300
     10 O1          87.8600    -6.5510    84.4950 o          1 LFO      -0.612100
     11 C3          86.8340    -5.5470    86.3610 cd         1 LFO      -0.211400
     12 N2          86.1390    -4.7420    88.3360 na         1 LFO      -0.048400
     13 C9          88.5790    -8.0150    88.6690 ca         1 LFO      -0.157000
     14 C11         87.3980    -6.3590    87.4040 ca         1 LFO      -0.052800
     15 H1          85.6600    -4.3040    84.4450 hn         1 LFO       0.307500
     16 H2          85.5050    -3.7700    86.5810 h4         1 LFO       0.156000
     17 H3          84.8440    -4.4970    89.9610 h1         1 LFO       0.051367
     18 H4          86.2300    -3.3940    89.9380 h1         1 LFO       0.051367
     19 H5          84.8890    -3.1570    88.8090 h1         1 LFO       0.051367
     20 H6          86.9080    -5.9280    90.7860 ha         1 LFO       0.130000
     21 H7          88.3910    -7.9080    90.8120 ha         1 LFO       0.128000
     22 H8          88.6160    -7.9160    86.5310 ha         1 LFO       0.159000
     23 H9          85.8490    -4.2760    82.1980 h1         1 LFO       0.037700
     24 H10         87.5280    -4.7950    82.3430 h1         1 LFO       0.037700
     25 H11         86.2350    -5.9960    82.2600 h1         1 LFO       0.037700
     26 H12         89.2280    -8.8800    88.7090 ha         1 LFO       0.131000
@<TRIPOS>BOND
     1     1     8 1   
     2     1     9 1   
     3     1    15 1   
     4     2    11 2   
     5     2    12 1   
     6     2    16 1   
     7     3    12 1   
     8     3    17 1   
     9     3    18 1   
    10     3    19 1   
    11     4     5 ar  
    12     4    12 1   
    13     4    14 ar  
    14     5     6 ar  
    15     5    20 1   
    16     6    13 ar  
    17     6    21 1   
    18     7    13 ar  
    19     7    14 ar  
    20     7    22 1   
    21     8    23 1   
    22     8    24 1   
    23     8    25 1   
    24     9    10 2   
    25     9    11 1   
    26    11    14 1   
    27    13    26 1   
@<TRIPOS>SUBSTRUCTURE
     1 LFO         1 TEMP              0 ****  ****    0 ROOT
