@<TRIPOS>MOLECULE
LFO
   26    27     1     0     0
SMALL
No Charge or Current Charge


@<TRIPOS>ATOM
      1 N1          86.4120    -4.9320    84.0910 ns         1 LFO      -0.513900
      2 C4          86.0380    -4.5680    86.8920 cc         1 LFO      -0.124100
      3 C5          85.4610    -3.9220    89.3210 c3         1 LFO       0.061900
      4 C6          86.9330    -5.8140    88.6060 ca         1 LFO      -0.062200
      5 C7          87.2830    -6.3270    89.8660 ca         1 LFO      -0.128000
      6 C8          88.1400    -7.4480    89.9100 ca         1 LFO      -0.092000
      7 C10         88.2560    -7.4910    87.4590 ca         1 LFO      -0.046000
      8 C1          86.4770    -4.9530    82.6290 c3         1 LFO       0.099300
      9 C2          87.0660    -5.8240    84.9110 c          1 LFO       0.642300
     10 O1          87.7660    -6.7190    84.4590 o          1 LFO      -0.612100
     11 C3          86.8360    -5.5870    86.3670 cd         1 LFO      -0.211400
     12 N2          86.1190    -4.7360    88.2870 na         1 LFO      -0.077700
     13 C9          88.6230    -8.0260    88.7120 ca         1 LFO      -0.139000
     14 C11         87.4030    -6.3760    87.4480 ca         1 LFO      -0.052800
     15 H1          85.8530    -4.2220    84.5420 hn         1 LFO       0.307500
     16 H2          85.4510    -3.7800    86.4310 h4         1 LFO       0.206000
     17 H3          84.7990    -4.5560    89.9220 h1         1 LFO       0.051367
     18 H4          86.2200    -3.4680    89.9700 h1         1 LFO       0.051367
     19 H5          84.8700    -3.1280    88.8480 h1         1 LFO       0.051367
     20 H6          86.9100    -5.8790    90.7830 ha         1 LFO       0.112000
     21 H7          88.4290    -7.8690    90.8700 ha         1 LFO       0.110000
     22 H8          88.6260    -7.9340    86.5390 ha         1 LFO       0.141000
     23 H9          85.8660    -4.1370    82.2230 h1         1 LFO       0.037700
     24 H10         87.5180    -4.8220    82.3040 h1         1 LFO       0.037700
     25 H11         86.0950    -5.9120    82.2560 h1         1 LFO       0.037700
     26 H12         89.2830    -8.8900    88.7570 ha         1 LFO       0.113000
@<TRIPOS>BOND
     1     1     8 1   
     2     1     9 1   
     3     1    15 1   
     4     2    11 2   
     5     2    12 1   
     6     2    16 1   
     7     3    12 1   
     8     3    17 1   
     9     3    18 1   
    10     3    19 1   
    11     4     5 ar  
    12     4    12 1   
    13     4    14 ar  
    14     5     6 ar  
    15     5    20 1   
    16     6    13 ar  
    17     6    21 1   
    18     7    13 ar  
    19     7    14 ar  
    20     7    22 1   
    21     8    23 1   
    22     8    24 1   
    23     8    25 1   
    24     9    10 2   
    25     9    11 1   
    26    11    14 1   
    27    13    26 1   
@<TRIPOS>SUBSTRUCTURE
     1 LFO         1 TEMP              0 ****  ****    0 ROOT
