@<TRIPOS>MOLECULE
LFP
   29    30     1     0     0
SMALL
bcc


@<TRIPOS>ATOM
      1 N1           3.7730     1.2540     0.3080 na         1 LFP       0.113400
      2 N3          -0.2640    -0.4170    -0.9850 ns         1 LFP      -0.572900
      3 C4           0.7670    -0.7200    -0.1700 c          1 LFP       0.722700
      4 C5          -1.4460    -1.2300    -1.1230 c3         1 LFP       0.149300
      5 C6          -2.6640    -0.6400    -0.4520 ca         1 LFP      -0.126300
      6 C7          -2.5790    -0.0140     0.7880 ca         1 LFP      -0.091500
      7 C8          -3.7080     0.4960     1.4120 ca         1 LFP      -0.170000
      8 C10         -5.0550    -0.2460    -0.4500 ca         1 LFP      -0.170000
      9 C1           5.0930     1.5700     0.8070 c3         1 LFP       0.036600
     10 C11         -3.9110    -0.7450    -1.0590 ca         1 LFP      -0.091500
     11 C12          3.0500     0.1530     0.5470 cc         1 LFP       0.058100
     12 C2           1.9920     1.5060    -0.8000 cd         1 LFP       0.335200
     13 C3           1.8630     0.2600    -0.1550 cd         1 LFP      -0.334900
     14 C9          -4.9300     0.3680     0.7790 ca         1 LFP       0.136900
     15 F1          -6.0270     0.8640     1.3770 f          1 LFP      -0.144900
     16 N2           3.1350     2.0880    -0.5160 nc         1 LFP      -0.510800
     17 O1           0.8070    -1.7320     0.5150 o          1 LFP      -0.598100
     18 CL1          3.6390    -1.0730     1.5550 cl         1 LFP      -0.003400
     19 H1          -0.2390     0.4360    -1.5190 hn         1 LFP       0.314500
     20 H2          -1.6510    -1.3770    -2.1850 h1         1 LFP       0.066700
     21 H3          -1.2320    -2.2150    -0.7070 h1         1 LFP       0.066700
     22 H4          -1.6230     0.0880     1.2860 ha         1 LFP       0.138000
     23 H5          -3.6370     0.9860     2.3750 ha         1 LFP       0.150500
     24 H6          -6.0210    -0.3300    -0.9300 ha         1 LFP       0.150500
     25 H7           5.8400     0.9140     0.3650 h1         1 LFP       0.066367
     26 H8           5.3100     2.5970     0.5330 h1         1 LFP       0.066367
     27 H9           5.1250     1.4750     1.8890 h1         1 LFP       0.066367
     28 H10         -3.9990    -1.2220    -2.0280 ha         1 LFP       0.138000
     29 H11          1.2920     2.0030    -1.4550 h4         1 LFP       0.040100
@<TRIPOS>BOND
     1     1     9 1   
     2     1    11 1   
     3     1    16 1   
     4     2     3 1   
     5     2     4 1   
     6     2    19 1   
     7     3    13 1   
     8     3    17 2   
     9     4     5 1   
    10     4    20 1   
    11     4    21 1   
    12     5     6 ar  
    13     5    10 ar  
    14     6     7 ar  
    15     6    22 1   
    16     7    14 ar  
    17     7    23 1   
    18     8    10 ar  
    19     8    14 ar  
    20     8    24 1   
    21     9    25 1   
    22     9    26 1   
    23     9    27 1   
    24    10    28 1   
    25    11    13 2   
    26    11    18 1   
    27    12    13 1   
    28    12    16 2   
    29    12    29 1   
    30    14    15 1   
@<TRIPOS>SUBSTRUCTURE
     1 LFP         1 TEMP              0 ****  ****    0 ROOT
