@<TRIPOS>MOLECULE
LFP
   29    30     1     0     0
SMALL
No Charge or Current Charge


@<TRIPOS>ATOM
      1 N1           3.7980     1.4000     0.0520 na         1 LFP       0.134800
      2 N3          -0.2560    -0.6000    -0.0610 ns         1 LFP      -0.505900
      3 C4           1.0640    -0.9760    -0.1070 c          1 LFP       0.655700
      4 C5          -1.3780    -1.5320    -0.1230 c3         1 LFP       0.149300
      5 C6          -2.7020    -0.7900    -0.0490 ca         1 LFP      -0.126300
      6 C7          -3.3040    -0.5360     1.2000 ca         1 LFP      -0.073500
      7 C8          -4.5260     0.1560     1.2680 ca         1 LFP      -0.152000
      8 C10         -4.5530     0.3500    -1.1590 ca         1 LFP      -0.152000
      9 C1           5.1930     1.8620     0.0730 c3         1 LFP       0.065900
     10 C11         -3.3300    -0.3420    -1.2290 ca         1 LFP      -0.073500
     11 C12          3.3650     0.0820    -0.0490 cc         1 LFP       0.099000
     12 C2           1.6920     1.5370     0.0880 cd         1 LFP       0.269900
     13 C3           1.9990     0.1630    -0.0260 cd         1 LFP      -0.269600
     14 C9          -5.1460     0.5960     0.0880 ca         1 LFP       0.172000
     15 F1          -6.3200     1.2610     0.1540 f          1 LFP      -0.180000
     16 N2           2.7620     2.3110     0.1370 nc         1 LFP      -0.510800
     17 O1           1.4000    -2.1460    -0.2050 o          1 LFP      -0.598100
     18 Cl1          4.4010    -1.3130    -0.1730 cl         1 LFP      -0.095000
     19 H1          -0.4580     0.3870     0.0200 hn         1 LFP       0.314500
     20 H2          -1.3200    -2.1020    -1.0600 h1         1 LFP       0.066700
     21 H3          -1.3010    -2.2430     0.7110 h1         1 LFP       0.066700
     22 H4          -2.8250    -0.8740     2.1170 ha         1 LFP       0.120000
     23 H5          -4.9920     0.3520     2.2300 ha         1 LFP       0.132500
     24 H6          -5.0380     0.6960    -2.0680 ha         1 LFP       0.132500
     25 H7           5.6910     1.5580    -0.8550 h1         1 LFP       0.066367
     26 H8           5.2280     2.9550     0.1610 h1         1 LFP       0.066367
     27 H9           5.7120     1.4140     0.9280 h1         1 LFP       0.066367
     28 H10         -2.8710    -0.5280    -2.1980 ha         1 LFP       0.120000
     29 H11          0.7150     2.0010     0.1360 h4         1 LFP       0.040100
@<TRIPOS>BOND
     1     1     9 1   
     2     1    11 1   
     3     1    16 1   
     4     2     3 1   
     5     2     4 1   
     6     2    19 1   
     7     3    13 1   
     8     3    17 2   
     9     4     5 1   
    10     4    20 1   
    11     4    21 1   
    12     5     6 ar  
    13     5    10 ar  
    14     6     7 ar  
    15     6    22 1   
    16     7    14 ar  
    17     7    23 1   
    18     8    10 ar  
    19     8    14 ar  
    20     8    24 1   
    21     9    25 1   
    22     9    26 1   
    23     9    27 1   
    24    10    28 1   
    25    11    13 2   
    26    11    18 1   
    27    12    13 1   
    28    12    16 2   
    29    12    29 1   
    30    14    15 1   
@<TRIPOS>SUBSTRUCTURE
     1 LFP         1 TEMP              0 ****  ****    0 ROOT
