@<TRIPOS>MOLECULE
LFQ
   27    28     1     0     0
SMALL
bcc


@<TRIPOS>ATOM
      1 C10        -20.4250   -22.4940    -7.4700 ca         1 LFQ      -0.117500
      2 C13        -19.9880   -22.3320   -10.2030 ca         1 LFQ      -0.129500
      3 C02        -19.3250   -19.9880    -5.9860 cc         1 LFQ      -0.032400
      4 C03        -19.9470   -20.0520    -7.2090 cd         1 LFQ      -0.069000
      5 C04        -20.4560   -18.7870    -7.6190 cd         1 LFQ      -0.101000
      6 C05        -20.2280   -17.7880    -6.7200 cc         1 LFQ      -0.193000
      7 C06        -20.6080   -16.3670    -6.8060 ce         1 LFQ       0.695800
      8 C09        -20.0740   -21.2660    -8.0320 ca         1 LFQ      -0.016000
      9 C11        -20.5470   -23.6270    -8.2630 ca         1 LFQ      -0.129500
     10 C12        -20.3290   -23.5510    -9.6310 ca         1 LFQ      -0.125000
     11 C14        -19.8610   -21.2010    -9.4110 ca         1 LFQ      -0.117500
     12 N07        -20.0070   -15.4060    -6.2140 n2         1 LFQ      -0.847100
     13 N08        -21.6630   -16.1220    -7.6330 nv         1 LFQ      -0.917800
     14 S01        -19.3790   -18.3930    -5.3490 ss         1 LFQ      -0.065800
     15 H101       -20.6250   -22.5670    -6.4090 ha         1 LFQ       0.133000
     16 H131       -19.8170   -22.2610   -11.2700 ha         1 LFQ       0.131500
     17 H151       -17.8370   -20.6650    -4.5950 hc         1 LFQ       0.051700
     18 H013       -19.3370   -21.5790    -4.5410 hc         1 LFQ       0.051700
     19 H152       -18.2150   -21.8080    -5.8790 hc         1 LFQ       0.051700
     20 H041       -20.9730   -18.6350    -8.5570 ha         1 LFQ       0.160000
     21 H111       -20.8250   -24.5700    -7.8090 ha         1 LFQ       0.131500
     22 H121       -20.4270   -24.4340   -10.2500 ha         1 LFQ       0.131000
     23 H141       -19.5810   -20.2590    -9.8670 ha         1 LFQ       0.133000
     24 H071       -19.1730   -15.7260    -5.7340 hn         1 LFQ       0.389400
     25 H081       -22.0180   -15.1780    -7.6270 hn         1 LFQ       0.414300
     26 H082       -22.3720   -16.8290    -7.7280 hn         1 LFQ       0.414300
     27 C15        -18.6440   -21.0640    -5.2090 c3         1 LFQ      -0.027800
@<TRIPOS>BOND
     1     1     8 ar  
     2     1     9 ar  
     3     1    15 1   
     4     2    10 ar  
     5     2    11 ar  
     6     2    16 1   
     7     3     4 2   
     8     3    14 1   
     9     3    27 1   
    10     4     5 1   
    11     4     8 1   
    12     5     6 2   
    13     5    20 1   
    14     6     7 1   
    15     6    14 1   
    16     7    12 2   
    17     7    13 1   
    18     8    11 ar  
    19     9    10 ar  
    20     9    21 1   
    21    10    22 1   
    22    11    23 1   
    23    12    24 1   
    24    13    25 1   
    25    13    26 1   
    26    17    27 1   
    27    18    27 1   
    28    19    27 1   
@<TRIPOS>SUBSTRUCTURE
     1 LFQ         1 TEMP              0 ****  ****    0 ROOT
