@<TRIPOS>MOLECULE
LFQ
   27    28     1     0     0
SMALL
No Charge or Current Charge


@<TRIPOS>ATOM
      1 C10        -20.1610   -22.5750    -7.4740 ca         1 LFQ      -0.099500
      2 C13        -20.2500   -22.2910   -10.2610 ca         1 LFQ      -0.111500
      3 C02        -19.4100   -19.9990    -5.8960 cc         1 LFQ      -0.177300
      4 C03        -19.9000   -20.0590    -7.1920 cd         1 LFQ      -0.069000
      5 C04        -20.3750   -18.7800    -7.6240 cd         1 LFQ      -0.083000
      6 C05        -20.2380   -17.7570    -6.7150 cc         1 LFQ      -0.337900
      7 C06        -20.6070   -16.3640    -6.8480 ce         1 LFQ       0.695800
      8 C09        -20.0480   -21.2790    -8.0310 ca         1 LFQ      -0.016000
      9 C11        -20.3070   -23.7070    -8.2950 ca         1 LFQ      -0.111500
     10 C12        -20.3470   -23.5670    -9.6900 ca         1 LFQ      -0.107000
     11 C14        -20.1070   -21.1590    -9.4400 ca         1 LFQ      -0.099500
     12 N07        -20.0060   -15.4410    -6.2260 n2         1 LFQ      -0.847100
     13 N08        -21.5100   -16.0160    -7.7720 nv         1 LFQ      -1.028200
     14 S01        -19.4780   -18.3590    -5.2520 ss         1 LFQ       0.224000
     15 H101       -20.1830   -22.7220    -6.4020 ha         1 LFQ       0.115000
     16 H131       -20.2810   -22.1760   -11.3430 ha         1 LFQ       0.113500
     17 H151       -18.0660   -20.6160    -4.3220 hc         1 LFQ       0.051700
     18 H013       -19.4920   -21.6440    -4.4960 hc         1 LFQ       0.051700
     19 H152       -18.1540   -21.7480    -5.6700 hc         1 LFQ       0.051700
     20 H041       -20.8330   -18.6210    -8.5950 ha         1 LFQ       0.142000
     21 H111       -20.3990   -24.6940    -7.8470 ha         1 LFQ       0.113500
     22 H121       -20.4600   -24.4440   -10.3250 ha         1 LFQ       0.113000
     23 H141       -20.0110   -20.1870    -9.9160 ha         1 LFQ       0.115000
     24 H071       -19.2500   -15.8770    -5.6850 hn         1 LFQ       0.389400
     25 H081       -21.8650   -15.0760    -7.6560 hn         1 LFQ       0.469500
     26 H082       -22.1930   -16.7270    -7.9970 hn         1 LFQ       0.469500
     27 C15        -18.7490   -21.0630    -5.0540 c3         1 LFQ      -0.027800
@<TRIPOS>BOND
     1     1     8 ar  
     2     1     9 ar  
     3     1    15 1   
     4     2    10 ar  
     5     2    11 ar  
     6     2    16 1   
     7     3     4 2   
     8     3    14 1   
     9     3    27 1   
    10     4     5 1   
    11     4     8 1   
    12     5     6 2   
    13     5    20 1   
    14     6     7 1   
    15     6    14 1   
    16     7    12 2   
    17     7    13 1   
    18     8    11 ar  
    19     9    10 ar  
    20     9    21 1   
    21    10    22 1   
    22    11    23 1   
    23    12    24 1   
    24    13    25 1   
    25    13    26 1   
    26    17    27 1   
    27    18    27 1   
    28    19    27 1   
@<TRIPOS>SUBSTRUCTURE
     1 LFQ         1 TEMP              0 ****  ****    0 ROOT
