@<TRIPOS>MOLECULE
LFR
   24    24     1     0     0
SMALL
abcg2


@<TRIPOS>ATOM
      1 C1          -2.1640     0.6620    -0.8330 c3         1 LFR       0.141600
      2 C2          -0.9490     0.1920    -0.0450 c5         1 LFR       0.386000
      3 C3          -0.5340    -1.2390    -0.3810 c5         1 LFR       0.156300
      4 C4           0.9370    -1.2340     0.0060 c5         1 LFR       0.100300
      5 C5           1.3610     0.1820    -0.4030 c5         1 LFR       0.136300
      6 C6           2.3920     0.7700     0.5300 c3         1 LFR       0.156600
      7 O1          -2.5330     1.9400    -0.3660 oh         1 LFR      -0.715000
      8 O2          -1.1850     0.2750     1.3230 oh         1 LFR      -0.714000
      9 O3          -1.3310    -2.1750     0.2810 oh         1 LFR      -0.688000
     10 O4           1.6260    -2.2640    -0.6500 oh         1 LFR      -0.714000
     11 O5           0.1700     0.9650    -0.4190 os         1 LFR      -0.445000
     12 O6           2.8010     2.0260     0.0430 oh         1 LFR      -0.703000
     13 H1C1        -1.9210     0.6730    -1.9020 h1         1 LFR       0.045200
     14 H1C2        -2.9670    -0.0690    -0.6870 h1         1 LFR       0.045200
     15 H3          -0.5980    -1.3630    -1.4730 h1         1 LFR       0.053700
     16 H4           1.0120    -1.3460     1.0970 h1         1 LFR       0.066700
     17 H5           1.7680     0.1500    -1.4220 h1         1 LFR       0.077700
     18 H6C1         3.2330     0.0660     0.5910 h1         1 LFR       0.022200
     19 H6C2         1.9600     0.8410     1.5370 h1         1 LFR       0.022200
     20 H1          -3.4840     2.0410    -0.4610 ho         1 LFR       0.509000
     21 H2          -1.6710     1.0930     1.4900 ho         1 LFR       0.529000
     22 HA          -1.1920    -3.0320    -0.1330 ho         1 LFR       0.513000
     23 HB           2.4790    -2.3900    -0.2230 ho         1 LFR       0.513000
     24 H6           3.4640     2.3780     0.6430 ho         1 LFR       0.502000
@<TRIPOS>BOND
     1     1     2 1   
     2     1     7 1   
     3     1    13 1   
     4     1    14 1   
     5     2     3 1   
     6     2     8 1   
     7     2    11 1   
     8     3     4 1   
     9     3     9 1   
    10     3    15 1   
    11     4     5 1   
    12     4    10 1   
    13     4    16 1   
    14     5     6 1   
    15     5    11 1   
    16     5    17 1   
    17     6    12 1   
    18     6    18 1   
    19     6    19 1   
    20     7    20 1   
    21     8    21 1   
    22     9    22 1   
    23    10    23 1   
    24    12    24 1   
@<TRIPOS>SUBSTRUCTURE
     1 LFR         1 TEMP              0 ****  ****    0 ROOT
