@<TRIPOS>MOLECULE
LFR
   24    24     1     0     0
SMALL
No Charge or Current Charge


@<TRIPOS>ATOM
      1 C1          -2.2920     0.6940    -0.6810 c3         1 LFR       0.141600
      2 C2          -0.9400     0.1660    -0.1040 c5         1 LFR       0.386000
      3 C3          -0.5610    -1.3020    -0.5140 c5         1 LFR       0.156300
      4 C4           0.9150    -1.3180    -0.0190 c5         1 LFR       0.100300
      5 C5           1.3870     0.1170    -0.4680 c5         1 LFR       0.136300
      6 C6           2.3400     0.8060     0.5520 c3         1 LFR       0.156600
      7 O1          -2.6620     1.9490    -0.0510 oh         1 LFR      -0.715000
      8 O2          -0.9930     0.4030     1.2970 oh         1 LFR      -0.714000
      9 O3          -1.3610    -2.3580     0.0550 oh         1 LFR      -0.688000
     10 O4           1.6650    -2.4030    -0.5970 oh         1 LFR      -0.714000
     11 O5           0.1670     0.9010    -0.6530 os         1 LFR      -0.445000
     12 O6           2.9360     1.9930    -0.0020 oh         1 LFR      -0.703000
     13 H1C1        -2.1850     0.8190    -1.7670 h1         1 LFR       0.045200
     14 H1C2        -3.0690    -0.0640    -0.5110 h1         1 LFR       0.045200
     15 H3          -0.5850    -1.3830    -1.6100 h1         1 LFR       0.053700
     16 H4           0.9360    -1.3910     1.0790 h1         1 LFR       0.066700
     17 H5           1.9020     0.0610    -1.4380 h1         1 LFR       0.077700
     18 H6C1         3.1280     0.0920     0.8280 h1         1 LFR       0.022200
     19 H6C2         1.7790     1.0450     1.4650 h1         1 LFR       0.022200
     20 H1          -3.4280     2.3140    -0.5560 ho         1 LFR       0.509000
     21 H2          -1.5980     1.1870     1.3100 ho         1 LFR       0.529000
     22 HA          -0.8190    -3.1770    -0.0310 ho         1 LFR       0.513000
     23 HB           2.5500    -2.4240    -0.1600 ho         1 LFR       0.513000
     24 H6           3.4640     2.4130     0.7180 ho         1 LFR       0.502000
@<TRIPOS>BOND
     1     1     2 1   
     2     1     7 1   
     3     1    13 1   
     4     1    14 1   
     5     2     3 1   
     6     2     8 1   
     7     2    11 1   
     8     3     4 1   
     9     3     9 1   
    10     3    15 1   
    11     4     5 1   
    12     4    10 1   
    13     4    16 1   
    14     5     6 1   
    15     5    11 1   
    16     5    17 1   
    17     6    12 1   
    18     6    18 1   
    19     6    19 1   
    20     7    20 1   
    21     8    21 1   
    22     9    22 1   
    23    10    23 1   
    24    12    24 1   
@<TRIPOS>SUBSTRUCTURE
     1 LFR         1 TEMP              0 ****  ****    0 ROOT
