@<TRIPOS>MOLECULE
LFS
   49    51     1     0     0
SMALL
No Charge or Current Charge


@<TRIPOS>ATOM
      1 CAA          6.9880    -2.2940    -1.3550 c3         1 LFS      -0.084100
      2 CAB          7.4230    -0.2280     0.0870 c3         1 LFS      -0.084100
      3 OAC          0.1650     0.4580    -1.5330 o          1 LFS      -0.510000
      4 CAE         -0.0570     4.2850    -1.2560 cc         1 LFS       0.237900
      5 CAF         -5.6350    -1.4410    -0.7570 ca         1 LFS      -0.155000
      6 CAG         -5.0590    -1.3420     1.6050 ca         1 LFS      -0.155000
      7 CAH          2.9800    -1.6240     1.1750 ca         1 LFS      -0.131000
      8 CAI          3.0680    -0.2570    -0.8270 ca         1 LFS      -0.131000
      9 CAJ         -4.4890    -0.6870    -1.0700 ca         1 LFS      -0.061000
     10 CAK         -3.9130    -0.5880     1.2950 ca         1 LFS      -0.061000
     11 CAL          4.3640    -1.8530     1.0830 ca         1 LFS      -0.085000
     12 CAM          4.4520    -0.4860    -0.9190 ca         1 LFS      -0.085000
     13 CAN         -1.2300     3.5920    -1.3820 cd         1 LFS      -0.222000
     14 CAO         -0.2750     3.2170     0.6000 cd         1 LFS       0.385400
     15 CAP         -2.4820     2.0080     0.1780 c3         1 LFS       0.055600
     16 NAQ          0.5270     4.0590    -0.0410 nc         1 LFS      -0.668000
     17 OAS         -1.2420    -0.0940     0.2010 os         1 LFS      -0.472100
     18 CAT         -0.0270    -0.0250    -0.4260 c          1 LFS       0.652100
     19 CAU         -5.9160    -1.7650     0.5780 ca         1 LFS       0.185000
     20 CAV          2.3170    -0.8310     0.2210 ca         1 LFS      -0.019000
     21 CAW          5.1130    -1.2860     0.0340 ca         1 LFS      -0.088300
     22 CAX         -3.6210    -0.2540    -0.0450 ca         1 LFS      -0.126300
     23 CAY          6.6190    -1.5390    -0.0580 c3         1 LFS      -0.013400
     24 CAZ         -2.3810     0.5690    -0.3910 c3         1 LFS       0.224600
     25 NBA         -1.3710     2.9020    -0.1910 na         1 LFS      -0.175500
     26 HAA          8.0570    -2.5400    -1.3680 hc         1 LFS       0.035033
     27 HAAA         6.4240    -3.2310    -1.4260 hc         1 LFS       0.035033
     28 HAAB         6.7660    -1.6900    -2.2430 hc         1 LFS       0.035033
     29 HAB          7.2180     0.4580    -0.7430 hc         1 LFS       0.035033
     30 HABA         7.1630     0.2800     1.0240 hc         1 LFS       0.035033
     31 HABB         8.5000    -0.4340     0.1010 hc         1 LFS       0.035033
     32 HAE          0.4110     4.9450    -1.9740 h4         1 LFS       0.039100
     33 HAG         -5.2820    -1.5990     2.6370 ha         1 LFS       0.136500
     34 HAH          2.4210    -2.0720     1.9940 ha         1 LFS       0.124500
     35 HAI          2.6010     0.3730    -1.5770 ha         1 LFS       0.124500
     36 HAJ         -4.2800    -0.4400    -2.1090 ha         1 LFS       0.123000
     37 HAK         -3.2500    -0.2670     2.0970 ha         1 LFS       0.123000
     38 HAL          4.8520    -2.4730     1.8330 ha         1 LFS       0.113500
     39 HAM          5.0110    -0.0340    -1.7350 ha         1 LFS       0.113500
     40 HAN         -1.9380     3.5440    -2.2000 h4         1 LFS       0.156000
     41 HAO         -0.1370     2.8090     1.5950 h5         1 LFS       0.050100
     42 HAP         -3.4160     2.4590    -0.1820 h1         1 LFS       0.072700
     43 HAPA        -2.5450     1.9590     1.2720 h1         1 LFS       0.072700
     44 HAY          6.9210    -2.1850     0.7760 hc         1 LFS       0.047700
     45 HAZ         -2.2940     0.6210    -1.4850 h1         1 LFS       0.090700
     46 NAR          0.9180    -0.6370     0.3760 ns         1 LFS      -0.138000
     47 HAF         -6.3030    -1.7730    -1.5470 ha         1 LFS       0.136500
     48 FAD         -7.0160    -2.4900     0.8770 f          1 LFS      -0.174000
     49 HNAR         0.5400    -1.0060     1.2380 hn         1 LFS       0.164000
@<TRIPOS>BOND
     1     1    23 1   
     2     1    26 1   
     3     1    27 1   
     4     1    28 1   
     5     2    23 1   
     6     2    29 1   
     7     2    30 1   
     8     2    31 1   
     9     3    18 2   
    10     4    13 2   
    11     4    16 1   
    12     4    32 1   
    13     5     9 ar  
    14     5    19 ar  
    15     5    47 1   
    16     6    10 ar  
    17     6    19 ar  
    18     6    33 1   
    19     7    11 ar  
    20     7    20 ar  
    21     7    34 1   
    22     8    12 ar  
    23     8    20 ar  
    24     8    35 1   
    25     9    22 ar  
    26     9    36 1   
    27    10    22 ar  
    28    10    37 1   
    29    11    21 ar  
    30    11    38 1   
    31    12    21 ar  
    32    12    39 1   
    33    13    25 1   
    34    13    40 1   
    35    14    16 2   
    36    14    25 1   
    37    14    41 1   
    38    15    24 1   
    39    15    25 1   
    40    15    42 1   
    41    15    43 1   
    42    17    18 1   
    43    17    24 1   
    44    18    46 1   
    45    19    48 1   
    46    20    46 1   
    47    21    23 1   
    48    22    24 1   
    49    23    44 1   
    50    24    45 1   
    51    46    49 1   
@<TRIPOS>SUBSTRUCTURE
     1 LFS         1 TEMP              0 ****  ****    0 ROOT
