@<TRIPOS>MOLECULE
LFS
   49    51     1     0     0
SMALL
bcc


@<TRIPOS>ATOM
      1 CAA          6.8970    -2.6430    -0.5700 c3         1 LFS      -0.084100
      2 CAB          7.1170    -0.2280    -1.2480 c3         1 LFS      -0.084100
      3 OAC          0.2210     0.3810    -1.3890 o          1 LFS      -0.559000
      4 CAE          0.2250     4.1400    -0.2720 cc         1 LFS       0.303200
      5 CAF         -5.4980    -1.1410    -1.3060 ca         1 LFS      -0.173000
      6 CAG         -5.0020    -1.6830     0.9980 ca         1 LFS      -0.173000
      7 CAH          3.1560    -0.5770     1.4020 ca         1 LFS      -0.149000
      8 CAI          2.8050    -1.0060    -0.9320 ca         1 LFS      -0.149000
      9 CAJ         -4.3410    -0.3780    -1.3610 ca         1 LFS      -0.079000
     10 CAK         -3.8540    -0.9090     0.9260 ca         1 LFS      -0.079000
     11 CAL          4.5220    -0.7390     1.2220 ca         1 LFS      -0.103000
     12 CAM          4.1730    -1.1530    -1.0950 ca         1 LFS      -0.103000
     13 CAN         -0.9610     3.6000    -0.6760 cd         1 LFS      -0.254600
     14 CAO         -0.4230     2.8850     1.3180 cd         1 LFS       0.385400
     15 CAP         -2.5370     1.9540     0.3790 c3         1 LFS       0.026300
     16 NAQ          0.5510     3.6870     0.9760 nc         1 LFS      -0.668000
     17 OAS         -1.2040    -0.0290     0.3170 os         1 LFS      -0.448900
     18 CAT          0.0020    -0.0300    -0.2740 c          1 LFS       0.768100
     19 CAU         -5.8060    -1.7820    -0.1230 ca         1 LFS       0.149900
     20 CAV          2.2840    -0.7050     0.3250 ca         1 LFS       0.073600
     21 CAW          5.0610    -1.0220    -0.0290 ca         1 LFS      -0.088300
     22 CAX         -3.5100    -0.2530    -0.2530 ca         1 LFS      -0.126300
     23 CAY          6.5490    -1.1980    -0.2110 c3         1 LFS      -0.013400
     24 CAZ         -2.2920     0.6240    -0.3310 c3         1 LFS       0.201400
     25 NBA         -1.3710     2.8030     0.3570 na         1 LFS      -0.196900
     26 HAA          7.9780    -2.7690    -0.6580 hc         1 LFS       0.035033
     27 HAAA         6.5390    -3.3390     0.1900 hc         1 LFS       0.035033
     28 HAAB         6.4510    -2.9320    -1.5230 hc         1 LFS       0.035033
     29 HAB          6.7350    -0.4420    -2.2480 hc         1 LFS       0.035033
     30 HABA         6.8660     0.8050    -1.0080 hc         1 LFS       0.035033
     31 HABB         8.2040    -0.3090    -1.2900 hc         1 LFS       0.035033
     32 HAE          0.8540     4.8320    -0.8110 h4         1 LFS       0.039100
     33 HAG         -5.2670    -2.2010     1.9100 ha         1 LFS       0.154500
     34 HAH          2.7680    -0.3440     2.3860 ha         1 LFS       0.142500
     35 HAI          2.1540    -1.1380    -1.7830 ha         1 LFS       0.142500
     36 HAJ         -4.0840     0.1230    -2.2870 ha         1 LFS       0.141000
     37 HAK         -3.2270    -0.8320     1.8050 ha         1 LFS       0.141000
     38 HAL          5.1800    -0.6330     2.0760 ha         1 LFS       0.131500
     39 HAM          4.5470    -1.3900    -2.0850 ha         1 LFS       0.131500
     40 HAN         -1.5360     3.7090    -1.5800 h4         1 LFS       0.174000
     41 HAO         -0.5070     2.3500     2.2530 h5         1 LFS       0.050100
     42 HAP         -3.3680     2.4700    -0.1020 h1         1 LFS       0.072700
     43 HAPA        -2.8190     1.7830     1.4190 h1         1 LFS       0.072700
     44 HAY          7.0230    -0.9680     0.7490 hc         1 LFS       0.047700
     45 HAZ         -2.0450     0.8120    -1.3780 h1         1 LFS       0.090700
     46 NAR          0.9090    -0.5740     0.5700 ns         1 LFS      -0.464100
     47 HAF         -6.1410    -1.2400    -2.1710 ha         1 LFS       0.154500
     48 FAD         -6.9190    -2.5290    -0.0570 f          1 LFS      -0.138900
     49 HNAR         0.5990    -0.7670     1.5110 hn         1 LFS       0.330500
@<TRIPOS>BOND
     1     1    23 1   
     2     1    26 1   
     3     1    27 1   
     4     1    28 1   
     5     2    23 1   
     6     2    29 1   
     7     2    30 1   
     8     2    31 1   
     9     3    18 2   
    10     4    13 2   
    11     4    16 1   
    12     4    32 1   
    13     5     9 ar  
    14     5    19 ar  
    15     5    47 1   
    16     6    10 ar  
    17     6    19 ar  
    18     6    33 1   
    19     7    11 ar  
    20     7    20 ar  
    21     7    34 1   
    22     8    12 ar  
    23     8    20 ar  
    24     8    35 1   
    25     9    22 ar  
    26     9    36 1   
    27    10    22 ar  
    28    10    37 1   
    29    11    21 ar  
    30    11    38 1   
    31    12    21 ar  
    32    12    39 1   
    33    13    25 1   
    34    13    40 1   
    35    14    16 2   
    36    14    25 1   
    37    14    41 1   
    38    15    24 1   
    39    15    25 1   
    40    15    42 1   
    41    15    43 1   
    42    17    18 1   
    43    17    24 1   
    44    18    46 1   
    45    19    48 1   
    46    20    46 1   
    47    21    23 1   
    48    22    24 1   
    49    23    44 1   
    50    24    45 1   
    51    46    49 1   
@<TRIPOS>SUBSTRUCTURE
     1 LFS         1 TEMP              0 ****  ****    0 ROOT
