@<TRIPOS>MOLECULE
LFT
   49    51     1     0     0
SMALL
No Charge or Current Charge


@<TRIPOS>ATOM
      1 CAA          7.1960    -2.5940    -1.3540 c3         1 LFT      -0.084600
      2 CAB          7.7450    -0.5330     0.0540 c3         1 LFT      -0.084600
      3 OAC          0.5230     0.5040    -1.5370 o          1 LFT      -0.508000
      4 CAE          0.5010     4.3400    -1.3080 cc         1 LFT       0.237900
      5 CAF         -5.3640    -1.0820    -0.7090 ca         1 LFT      -0.106000
      6 CAG         -4.7730    -0.9820     1.6480 ca         1 LFT      -0.106000
      7 CAH          3.2420    -1.6830     1.1860 ca         1 LFT      -0.129500
      8 CAI          3.3880    -0.3510    -0.8370 ca         1 LFT      -0.129500
      9 CAJ         -4.1830    -0.3920    -1.0370 ca         1 LFT      -0.079000
     10 CAK         -3.5910    -0.2920     1.3230 ca         1 LFT      -0.079000
     11 CAL          4.6120    -1.9840     1.0900 ca         1 LFT      -0.085500
     12 CAM          4.7580    -0.6520    -0.9320 ca         1 LFT      -0.085500
     13 CAN         -0.7070     3.7080    -1.4200 cd         1 LFT      -0.222000
     14 CAO          0.2370     3.3100     0.5630 cd         1 LFT       0.384400
     15 CAP         -2.0320     2.2120     0.1660 c3         1 LFT       0.055600
     16 NAQ          1.0780     4.1000    -0.0930 nc         1 LFT      -0.667000
     17 OAS         -0.9010     0.0490     0.2110 os         1 LFT      -0.471100
     18 CAT          0.3130     0.0470    -0.4230 c          1 LFT       0.651100
     19 CAU         -5.6570    -1.3750     0.6320 ca         1 LFT       0.130000
     20 CAV          2.6150    -0.8700     0.2240 ca         1 LFT      -0.021000
     21 CAW          5.3830    -1.4710     0.0290 ca         1 LFT      -0.087300
     22 CAX         -3.2880     0.0090    -0.0230 ca         1 LFT      -0.107300
     23 CAY          6.8740    -1.8030    -0.0670 c3         1 LFT      -0.013400
     24 CAZ         -2.0080     0.7620    -0.3840 c3         1 LFT       0.220600
     25 NBA         -0.8780     3.0420    -0.2190 na         1 LFT      -0.175500
     26 HAA          8.2500    -2.8950    -1.3690 hc         1 LFT       0.035033
     27 HAAA         6.5830    -3.5020    -1.4090 hc         1 LFT       0.035033
     28 HAAB         7.0000    -1.9930    -2.2500 hc         1 LFT       0.035033
     29 HAB          7.5700     0.1510    -0.7850 hc         1 LFT       0.035033
     30 HABA         7.5170     0.0010     0.9850 hc         1 LFT       0.035033
     31 HABB         8.8100    -0.7940     0.0660 hc         1 LFT       0.035033
     32 HAE          1.0000     4.9650    -2.0380 h4         1 LFT       0.039100
     33 HAG         -5.0010    -1.2120     2.6850 ha         1 LFT       0.133500
     34 HAH          2.6650    -2.0890     2.0140 ha         1 LFT       0.123500
     35 HAI          2.9500     0.2920    -1.5930 ha         1 LFT       0.123500
     36 HAJ         -3.9670    -0.1710    -2.0800 ha         1 LFT       0.124000
     37 HAK         -2.9090     0.0040     2.1180 ha         1 LFT       0.124000
     38 HAL          5.0720    -2.6170     1.8460 ha         1 LFT       0.114000
     39 HAM          5.3350    -0.2410    -1.7580 ha         1 LFT       0.114000
     40 HAN         -1.4210     3.6850    -2.2350 h4         1 LFT       0.156000
     41 HAO          0.3590     2.9090     1.5630 h5         1 LFT       0.050100
     42 HAP         -2.9430     2.7060    -0.1950 h1         1 LFT       0.073200
     43 HAPA        -2.0910     2.1800     1.2610 h1         1 LFT       0.073200
     44 HAY          7.1470    -2.4510     0.7750 hc         1 LFT       0.047700
     45 HAZ         -1.9250     0.7950    -1.4790 h1         1 LFT       0.091700
     46 NAR          1.2290    -0.6020     0.3830 ns         1 LFT      -0.137000
     47 HAF         -6.0510    -1.3890    -1.4940 ha         1 LFT       0.133500
     48 ClD         -7.1350    -2.2380     1.0390 cl         1 LFT      -0.195000
     49 HNAR         0.8370    -0.9400     1.2520 hn         1 LFT       0.163000
@<TRIPOS>BOND
     1     1    23 1   
     2     1    26 1   
     3     1    27 1   
     4     1    28 1   
     5     2    23 1   
     6     2    29 1   
     7     2    30 1   
     8     2    31 1   
     9     3    18 2   
    10     4    13 2   
    11     4    16 1   
    12     4    32 1   
    13     5     9 ar  
    14     5    19 ar  
    15     5    47 1   
    16     6    10 ar  
    17     6    19 ar  
    18     6    33 1   
    19     7    11 ar  
    20     7    20 ar  
    21     7    34 1   
    22     8    12 ar  
    23     8    20 ar  
    24     8    35 1   
    25     9    22 ar  
    26     9    36 1   
    27    10    22 ar  
    28    10    37 1   
    29    11    21 ar  
    30    11    38 1   
    31    12    21 ar  
    32    12    39 1   
    33    13    25 1   
    34    13    40 1   
    35    14    16 2   
    36    14    25 1   
    37    14    41 1   
    38    15    24 1   
    39    15    25 1   
    40    15    42 1   
    41    15    43 1   
    42    17    18 1   
    43    17    24 1   
    44    18    46 1   
    45    19    48 1   
    46    20    46 1   
    47    21    23 1   
    48    22    24 1   
    49    23    44 1   
    50    24    45 1   
    51    46    49 1   
@<TRIPOS>SUBSTRUCTURE
     1 LFT         1 TEMP              0 ****  ****    0 ROOT
