@<TRIPOS>MOLECULE
LFT
   49    51     1     0     0
SMALL
bcc


@<TRIPOS>ATOM
      1 CAA          7.1400    -2.8480    -0.5590 c3         1 LFT      -0.084600
      2 CAB          7.3910    -0.4460    -1.2700 c3         1 LFT      -0.084600
      3 OAC          0.5470     0.3230    -1.4140 o          1 LFT      -0.557000
      4 CAE          0.8910     4.0650    -0.3460 cc         1 LFT       0.303200
      5 CAF         -5.2770    -0.7120    -1.2350 ca         1 LFT      -0.124000
      6 CAG         -4.7850    -1.2870     1.0570 ca         1 LFT      -0.124000
      7 CAH          3.4440    -0.6530     1.3910 ca         1 LFT      -0.147500
      8 CAI          3.0700    -1.1550    -0.9240 ca         1 LFT      -0.147500
      9 CAJ         -4.0640    -0.0440    -1.3140 ca         1 LFT      -0.097000
     10 CAK         -3.5800    -0.6100     0.9640 ca         1 LFT      -0.097000
     11 CAL          4.8040    -0.8530     1.2110 ca         1 LFT      -0.103500
     12 CAM          4.4340    -1.3380    -1.0890 ca         1 LFT      -0.103500
     13 CAN         -0.3440     3.6290    -0.7300 cd         1 LFT      -0.254600
     14 CAO          0.1510     2.8990     1.2700 cd         1 LFT       0.384400
     15 CAP         -2.0470     2.1450     0.3670 c3         1 LFT       0.026300
     16 NAQ          1.1890     3.6040     0.9050 nc         1 LFT      -0.667000
     17 OAS         -0.8830     0.0590     0.3170 os         1 LFT      -0.447900
     18 CAT          0.3140    -0.0380    -0.2860 c          1 LFT       0.767100
     19 CAU         -5.6250    -1.3300    -0.0460 ca         1 LFT       0.038400
     20 CAV          2.5640    -0.7970     0.3240 ca         1 LFT       0.071600
     21 CAW          5.3300    -1.1890    -0.0320 ca         1 LFT      -0.087300
     22 CAX         -3.2060     0.0150    -0.2230 ca         1 LFT      -0.107300
     23 CAY          6.8150    -1.3930    -0.2180 c3         1 LFT      -0.013400
     24 CAZ         -1.9210     0.7890    -0.3270 c3         1 LFT       0.197400
     25 NBA         -0.8120     2.8890     0.3200 na         1 LFT      -0.196900
     26 HAA          8.2180    -2.9900    -0.6500 hc         1 LFT       0.035033
     27 HAAA         6.7750    -3.5290     0.2110 hc         1 LFT       0.035033
     28 HAAB         6.6860    -3.1430    -1.5080 hc         1 LFT       0.035033
     29 HAB          7.0000    -0.6670    -2.2650 hc         1 LFT       0.035033
     30 HABA         7.1580     0.5950    -1.0420 hc         1 LFT       0.035033
     31 HABB         8.4770    -0.5440    -1.3180 hc         1 LFT       0.035033
     32 HAE          1.5730     4.6890    -0.9030 h4         1 LFT       0.039100
     33 HAG         -5.0650    -1.7760     1.9800 ha         1 LFT       0.151500
     34 HAH          3.0670    -0.3760     2.3680 ha         1 LFT       0.141500
     35 HAI          2.4110    -1.3030    -1.7670 ha         1 LFT       0.141500
     36 HAJ         -3.7850     0.4320    -2.2470 ha         1 LFT       0.142000
     37 HAK         -2.9320    -0.5820     1.8310 ha         1 LFT       0.142000
     38 HAL          5.4700    -0.7330     2.0580 ha         1 LFT       0.132000
     39 HAM          4.7980    -1.6160    -2.0720 ha         1 LFT       0.132000
     40 HAN         -0.9180     3.7800    -1.6290 h4         1 LFT       0.174000
     41 HAO          0.0290     2.3880     2.2140 h5         1 LFT       0.050100
     42 HAP         -2.8350     2.7240    -0.1150 h1         1 LFT       0.073200
     43 HAPA        -2.3320     2.0120     1.4120 h1         1 LFT       0.073200
     44 HAY          7.2960    -1.1580     0.7360 hc         1 LFT       0.047700
     45 HAZ         -1.6750     0.9440    -1.3800 h1         1 LFT       0.091700
     46 NAR          1.1940    -0.6150     0.5670 ns         1 LFT      -0.463100
     47 HAF         -5.9340    -0.7540    -2.0930 ha         1 LFT       0.151500
     48 CLD         -7.1330    -2.1750     0.0660 cl         1 LFT      -0.103400
     49 HNAR         0.8830    -0.7550     1.5160 hn         1 LFT       0.329500
@<TRIPOS>BOND
     1     1    23 1   
     2     1    26 1   
     3     1    27 1   
     4     1    28 1   
     5     2    23 1   
     6     2    29 1   
     7     2    30 1   
     8     2    31 1   
     9     3    18 2   
    10     4    13 2   
    11     4    16 1   
    12     4    32 1   
    13     5     9 ar  
    14     5    19 ar  
    15     5    47 1   
    16     6    10 ar  
    17     6    19 ar  
    18     6    33 1   
    19     7    11 ar  
    20     7    20 ar  
    21     7    34 1   
    22     8    12 ar  
    23     8    20 ar  
    24     8    35 1   
    25     9    22 ar  
    26     9    36 1   
    27    10    22 ar  
    28    10    37 1   
    29    11    21 ar  
    30    11    38 1   
    31    12    21 ar  
    32    12    39 1   
    33    13    25 1   
    34    13    40 1   
    35    14    16 2   
    36    14    25 1   
    37    14    41 1   
    38    15    24 1   
    39    15    25 1   
    40    15    42 1   
    41    15    43 1   
    42    17    18 1   
    43    17    24 1   
    44    18    46 1   
    45    19    48 1   
    46    20    46 1   
    47    21    23 1   
    48    22    24 1   
    49    23    44 1   
    50    24    45 1   
    51    46    49 1   
@<TRIPOS>SUBSTRUCTURE
     1 LFT         1 TEMP              0 ****  ****    0 ROOT
