@<TRIPOS>MOLECULE
LFU
   20    19     1     0     0
SMALL
bcc


@<TRIPOS>ATOM
      1 CA          -6.9000    -1.1190    26.8490 c3         1 LFU       0.105000
      2 C           -4.7550     0.0480    26.5410 c          1 LFU       0.665100
      3 O           -4.7150     0.4410    27.6990 o          1 LFU      -0.597100
      4 CB          -8.0140    -0.0770    26.8950 c3         1 LFU      -0.099400
      5 ND          -5.7600    -0.7050    26.0610 ns         1 LFU      -0.581900
      6 CH3         -3.6530     0.3420    25.5490 c3         1 LFU      -0.182100
      7 CC          -9.2700    -0.5830    27.5910 c3         1 LFU       0.154800
      8 NAA         -9.0380    -0.8590    29.0030 n8         1 LFU      -0.881800
      9 H1          -7.2810    -2.0440    26.4120 h1         1 LFU       0.049700
     10 H2          -6.5580    -1.3630    27.8560 h1         1 LFU       0.049700
     11 H3          -7.6560     0.8230    27.4020 hc         1 LFU       0.055700
     12 H4          -8.2720     0.2090    25.8720 hc         1 LFU       0.055700
     13 H5          -5.7420    -0.9730    25.0910 hn         1 LFU       0.308500
     14 H6          -3.0580     1.1860    25.8880 hc         1 LFU       0.058367
     15 H7          -2.9950    -0.5250    25.4600 hc         1 LFU       0.058367
     16 H8          -4.0420     0.5590    24.5540 hc         1 LFU       0.058367
     17 H9         -10.0370     0.1910    27.5220 h1         1 LFU       0.024700
     18 H10         -9.6590    -1.4490    27.0330 h1         1 LFU       0.024700
     19 H11         -9.9210    -1.0580    29.4540 hn         1 LFU       0.335800
     20 H12         -8.4910    -1.7040    29.1040 hn         1 LFU       0.335800
@<TRIPOS>BOND
     1     1     4 1   
     2     1     5 1   
     3     1     9 1   
     4     1    10 1   
     5     2     3 2   
     6     2     5 1   
     7     2     6 1   
     8     4     7 1   
     9     4    11 1   
    10     4    12 1   
    11     5    13 1   
    12     6    14 1   
    13     6    15 1   
    14     6    16 1   
    15     7     8 1   
    16     7    17 1   
    17     7    18 1   
    18     8    19 1   
    19     8    20 1   
@<TRIPOS>SUBSTRUCTURE
     1 LFU         1 TEMP              0 ****  ****    0 ROOT
