@<TRIPOS>MOLECULE
LFU
   20    19     1     0     0
SMALL
No Charge or Current Charge


@<TRIPOS>ATOM
      1 CA          -6.8890    -1.1860    26.8620 c3         1 LFU       0.105000
      2 C           -4.7390     0.0940    26.5500 c          1 LFU       0.598100
      3 O           -4.7510     0.5700    27.6760 o          1 LFU      -0.597100
      4 CB          -7.9870    -0.1010    26.8990 c3         1 LFU      -0.099400
      5 ND          -5.7160    -0.7620    26.0920 ns         1 LFU      -0.514900
      6 CH3         -3.6370     0.3990    25.5440 c3         1 LFU      -0.182100
      7 CC          -9.2940    -0.5520    27.5850 c3         1 LFU       0.154800
      8 NAA         -9.1120    -0.8150    29.0240 n8         1 LFU      -0.992200
      9 H1          -7.2930    -2.0970    26.4000 h1         1 LFU       0.049700
     10 H2          -6.5730    -1.4370    27.8840 h1         1 LFU       0.049700
     11 H3          -7.6040     0.7960    27.4000 hc         1 LFU       0.055700
     12 H4          -8.2250     0.1920    25.8700 hc         1 LFU       0.055700
     13 H5          -5.6100    -1.1050    25.1450 hn         1 LFU       0.308500
     14 H6          -2.8770     1.0800    25.9420 hc         1 LFU       0.058367
     15 H7          -3.1960    -0.5440    25.2010 hc         1 LFU       0.058367
     16 H8          -4.0900     0.7910    24.6260 hc         1 LFU       0.058367
     17 H9         -10.0490     0.2380    27.4730 h1         1 LFU       0.024700
     18 H10         -9.6750    -1.4620    27.1010 h1         1 LFU       0.024700
     19 H11        -10.0050    -1.1320    29.4210 hn         1 LFU       0.391000
     20 H12         -8.4950    -1.6270    29.1430 hn         1 LFU       0.391000
@<TRIPOS>BOND
     1     1     4 1   
     2     1     5 1   
     3     1     9 1   
     4     1    10 1   
     5     2     3 2   
     6     2     5 1   
     7     2     6 1   
     8     4     7 1   
     9     4    11 1   
    10     4    12 1   
    11     5    13 1   
    12     6    14 1   
    13     6    15 1   
    14     6    16 1   
    15     7     8 1   
    16     7    17 1   
    17     7    18 1   
    18     8    19 1   
    19     8    20 1   
@<TRIPOS>SUBSTRUCTURE
     1 LFU         1 TEMP              0 ****  ****    0 ROOT
