@<TRIPOS>MOLECULE
LFV
   61    65     1     0     0
SMALL
abcg2


@<TRIPOS>ATOM
      1 CBF          7.7230    -0.1630     0.1440 ca         1 LFV       0.194100
      2 CAT          6.5980     0.3500    -0.4880 ca         1 LFV      -0.260000
      3 CBC         -3.7280     0.3260     1.2720 c          1 LFV       0.616700
      4 CAI         -6.6100    -2.8110    -0.9700 ca         1 LFV      -0.099000
      5 CAP         -5.8150    -1.6860    -0.8220 ca         1 LFV      -0.084000
      6 CBJ          5.1890    -0.5410     1.2860 ca         1 LFV      -0.222500
      7 CBM          3.9070    -0.7710     1.9150 cc         1 LFV       0.493500
      8 CAU          9.1700     0.6700    -1.5340 c3         1 LFV       0.084600
      9 CAQ         -5.1500     3.9220    -0.8440 cc         1 LFV      -0.222000
     10 CAH         -4.1100     4.8020    -0.9310 cd         1 LFV       0.232900
     11 CAR         -3.5140     3.0780    -2.0230 cc         1 LFV       0.379400
     12 NAY          3.6810    -1.4070     3.0170 nd         1 LFV      -0.360000
     13 OAA         -4.5090     0.3870     2.2060 o          1 LFV      -0.575100
     14 CBG         -7.7330    -0.3650    -0.3560 ca         1 LFV       0.136000
     15 CAK         -1.8850    -0.6640     2.6020 ca         1 LFV      -0.080000
     16 CAM         -0.5510    -0.9270     2.8390 ca         1 LFV      -0.077500
     17 CAL         -1.2960     0.5750     0.6290 ca         1 LFV      -0.080000
     18 CAN          0.0450     0.3250     0.8670 ca         1 LFV      -0.077500
     19 CBH         -2.2720     0.0730     1.4840 ca         1 LFV      -0.133600
     20 CBK         -6.3510    -0.4410    -0.5110 ca         1 LFV      -0.098300
     21 OBA          8.9690    -0.0340    -0.3330 os         1 LFV      -0.321100
     22 NAW         -3.0950     4.2640    -1.6710 nd         1 LFV      -0.668000
     23 NAX          2.3360    -1.3820     3.2190 nd         1 LFV      -0.348000
     24 CBL          1.8210    -0.7340     2.2320 cc         1 LFV       0.474500
     25 CBI          0.4250    -0.4370     1.9690 ca         1 LFV      -0.119500
     26 CBD         -7.9790    -2.6910    -0.8020 ca         1 LFV       0.130000
     27 CAS         -8.5570    -1.4710    -0.4940 ca         1 LFV      -0.094000
     28 CBE          5.3610     0.1510     0.0950 ca         1 LFV       0.254000
     29 FAE         11.1250    -0.6060    -1.9040 f          1 LFV      -0.104333
     30 FAC         10.9380     1.2820    -2.9320 f          1 LFV      -0.104333
     31 FAD         11.3480     1.2330    -0.8140 f          1 LFV      -0.104333
     32 CAJ          7.5920    -0.8620     1.3480 ca         1 LFV      -0.161000
     33 CAO          6.3470    -1.0430     1.8990 ca         1 LFV      -0.003000
     34 CLG         -8.4860     1.1490     0.0300 cl         1 LFV      -0.192000
     35 CLF         -8.9900    -4.0820    -0.9760 cl         1 LFV      -0.183000
     36 CBN         -5.4710     0.7840    -0.3760 c3         1 LFV       0.144000
     37 CAV         -5.4820     1.5820    -1.6850 c3         1 LFV       0.061600
     38 NBO         -4.7560     2.8220    -1.5550 na         1 LFV      -0.169500
     39 NAZ         -4.1130     0.4770    -0.0130 ns         1 LFV      -0.505900
     40 OBB          2.7670    -0.3200     1.3740 os         1 LFV      -0.263000
     41 CBP         10.6590     0.6410    -1.7940 c3         1 LFV       0.312000
     42 H1           6.6450     0.9000    -1.4180 ha         1 LFV       0.141000
     43 H3          -4.7460    -1.7940    -0.9450 ha         1 LFV       0.119000
     44 H4           8.6510     0.2010    -2.3760 h1         1 LFV       0.076700
     45 H5           8.8420     1.7110    -1.4580 h1         1 LFV       0.076700
     46 H6          -6.1100     3.9820    -0.3590 h4         1 LFV       0.161000
     47 H7          -4.0450     5.7920    -0.5050 h4         1 LFV       0.041100
     48 H8          -2.9740     2.3660    -2.6300 h5         1 LFV       0.046100
     49 H9          -2.6330    -1.0460     3.2830 ha         1 LFV       0.133000
     50 H10         -0.2640    -1.5140     3.7010 ha         1 LFV       0.140500
     51 H11         -1.5580     1.1920    -0.2220 ha         1 LFV       0.133000
     52 H12          0.7840     0.7330     0.1900 ha         1 LFV       0.140500
     53 H13         -9.6260    -1.3800    -0.3620 ha         1 LFV       0.149000
     54 H14          8.4710    -1.2590     1.8380 ha         1 LFV       0.146000
     55 H15          6.2540    -1.5890     2.8280 ha         1 LFV       0.150000
     56 H16         -5.8820     1.4150     0.4150 h1         1 LFV       0.107700
     57 H17         -5.0280     1.0010    -2.4890 h1         1 LFV       0.072200
     58 H18         -6.5090     1.7930    -1.9800 h1         1 LFV       0.072200
     59 H19         -3.4590     0.2580    -0.7480 hn         1 LFV       0.316500
     60 FAB          4.3010     0.6580    -0.5360 f          1 LFV      -0.159000
     61 H2          -6.1630    -3.7650    -1.2110 ha         1 LFV       0.137000
@<TRIPOS>BOND
     1     1     2 ar  
     2     1    21 1   
     3     1    32 ar  
     4     2    28 ar  
     5     2    42 1   
     6     3    13 2   
     7     3    19 1   
     8     3    39 1   
     9     4     5 ar  
    10     4    26 ar  
    11     4    61 1   
    12     5    20 ar  
    13     5    43 1   
    14     6     7 1   
    15     6    28 ar  
    16     6    33 ar  
    17     7    12 2   
    18     7    40 1   
    19     8    21 1   
    20     8    41 1   
    21     8    44 1   
    22     8    45 1   
    23     9    10 2   
    24     9    38 1   
    25     9    46 1   
    26    10    22 1   
    27    10    47 1   
    28    11    22 2   
    29    11    38 1   
    30    11    48 1   
    31    12    23 1   
    32    14    20 ar  
    33    14    27 ar  
    34    14    34 1   
    35    15    16 ar  
    36    15    19 ar  
    37    15    49 1   
    38    16    25 ar  
    39    16    50 1   
    40    17    18 ar  
    41    17    19 ar  
    42    17    51 1   
    43    18    25 ar  
    44    18    52 1   
    45    20    36 1   
    46    23    24 2   
    47    24    25 1   
    48    24    40 1   
    49    26    27 ar  
    50    26    35 1   
    51    27    53 1   
    52    28    60 1   
    53    29    41 1   
    54    30    41 1   
    55    31    41 1   
    56    32    33 ar  
    57    32    54 1   
    58    33    55 1   
    59    36    37 1   
    60    36    39 1   
    61    36    56 1   
    62    37    38 1   
    63    37    57 1   
    64    37    58 1   
    65    39    59 1   
@<TRIPOS>SUBSTRUCTURE
     1 LFV         1 TEMP              0 ****  ****    0 ROOT
