@<TRIPOS>MOLECULE
LFV
   61    65     1     0     0
SMALL
No Charge or Current Charge


@<TRIPOS>ATOM
      1 CBF          7.7340    -0.6370     0.1370 ca         1 LFV       0.194100
      2 CAT          6.5540    -0.5130    -0.6190 ca         1 LFV      -0.260000
      3 CBC         -3.7480     0.8720     1.3420 c          1 LFV       0.616700
      4 CAI         -5.4550    -2.0410    -3.2390 ca         1 LFV      -0.099000
      5 CAP         -5.2190    -0.8970    -2.4570 ca         1 LFV      -0.084000
      6 CBJ          5.2870     0.0320     1.4070 ca         1 LFV      -0.222500
      7 CBM          4.0440     0.4020     2.0980 cc         1 LFV       0.493500
      8 CAU          9.1010    -1.2090    -1.8440 c3         1 LFV       0.084600
      9 CAQ         -6.8050     3.5950     0.4280 cc         1 LFV      -0.222000
     10 CAH         -6.2560     4.7210     0.9850 cd         1 LFV       0.232900
     11 CAR         -4.6960     3.8520    -0.2230 cc         1 LFV       0.379400
     12 NAY          3.9290     0.8120     3.3520 nd         1 LFV      -0.360000
     13 OAA         -4.5400     1.2270     2.2040 o          1 LFV      -0.575100
     14 CBG         -6.7230    -1.7600    -0.7460 ca         1 LFV       0.136000
     15 CAK         -1.7520     1.1780     2.8660 ca         1 LFV      -0.080000
     16 CAM         -0.3750     1.1390     3.1380 ca         1 LFV      -0.077500
     17 CAL         -1.3300     0.4110     0.6020 ca         1 LFV      -0.080000
     18 CAN          0.0490     0.3720     0.8770 ca         1 LFV      -0.077500
     19 CBH         -2.2540     0.8150     1.5960 ca         1 LFV      -0.133600
     20 CBK         -5.8530    -0.7370    -1.2030 ca         1 LFV      -0.098300
     21 OBA          8.9480    -0.9640    -0.4280 os         1 LFV      -0.321100
     22 NAW         -4.9480     4.8800     0.5750 nd         1 LFV      -0.668000
     23 NAX          2.5890     1.0100     3.5710 nd         1 LFV      -0.348000
     24 CBL          1.9850     0.6960     2.4350 cc         1 LFV       0.474500
     25 CBI          0.5440     0.7350     2.1470 ca         1 LFV      -0.119500
     26 CBD         -6.3220    -3.0400    -2.7770 ca         1 LFV       0.130000
     27 CAS         -6.9530    -2.9010    -1.5340 ca         1 LFV      -0.094000
     28 CBE          5.3460    -0.1780     0.0090 ca         1 LFV       0.254000
     29 FAE         10.9710    -2.6560    -1.4730 f          1 LFV      -0.104333
     30 FAC         10.7500    -1.7850    -3.4670 f          1 LFV      -0.104333
     31 FAD         11.3960    -0.5310    -1.7960 f          1 LFV      -0.104333
     32 CAJ          7.6900    -0.4170     1.5180 ca         1 LFV      -0.161000
     33 CAO          6.4830    -0.0810     2.1520 ca         1 LFV      -0.003000
     34 ClG         -7.5490    -1.6610     0.8110 cl         1 LFV      -0.192000
     35 ClF         -6.6150    -4.4720    -3.7560 cl         1 LFV      -0.183000
     36 CBN         -5.5710     0.5200    -0.3730 c3         1 LFV       0.144000
     37 CAV         -5.9040     1.8160    -1.1540 c3         1 LFV       0.061600
     38 NBO         -5.8060     3.0420    -0.3440 na         1 LFV      -0.169500
     39 NAZ         -4.1750     0.5020     0.0840 ns         1 LFV      -0.505900
     40 OBB          2.8480     0.2980     1.4680 os         1 LFV      -0.263000
     41 CBP         10.5770    -1.5500    -2.1470 c3         1 LFV       0.312000
     42 H1           6.5510    -0.6680    -1.6930 ha         1 LFV       0.141000
     43 H3          -4.5370    -0.1370    -2.8320 ha         1 LFV       0.119000
     44 H4           8.4700    -2.0490    -2.1620 h1         1 LFV       0.076700
     45 H5           8.8150    -0.3220    -2.4240 h1         1 LFV       0.076700
     46 H6          -7.7950     3.1680     0.5260 h4         1 LFV       0.161000
     47 H7          -6.7320     5.4270     1.6560 h4         1 LFV       0.041100
     48 H8          -3.7620     3.6420    -0.7310 h5         1 LFV       0.046100
     49 H9          -2.4330     1.4950     3.6540 ha         1 LFV       0.133000
     50 H10         -0.0250     1.4250     4.1280 ha         1 LFV       0.140500
     51 H11         -1.6590     0.1220    -0.3930 ha         1 LFV       0.133000
     52 H12          0.7300     0.0570     0.0890 ha         1 LFV       0.140500
     53 H13         -7.6220    -3.6790    -1.1770 ha         1 LFV       0.149000
     54 H14          8.6020    -0.5080     2.1040 ha         1 LFV       0.146000
     55 H15          6.4840     0.0840     3.2290 ha         1 LFV       0.150000
     56 H16         -6.2200     0.5240     0.5110 h1         1 LFV       0.107700
     57 H17         -5.2330     1.9130    -2.0160 h1         1 LFV       0.072200
     58 H18         -6.9280     1.7410    -1.5410 h1         1 LFV       0.072200
     59 H19         -3.4660     0.1900    -0.5650 hn         1 LFV       0.316500
     60 FAB          4.2470    -0.0540    -0.7680 f          1 LFV      -0.159000
     61 H2          -4.9630    -2.1530    -4.2020 ha         1 LFV       0.137000
@<TRIPOS>BOND
     1     1     2 ar  
     2     1    21 1   
     3     1    32 ar  
     4     2    28 ar  
     5     2    42 1   
     6     3    13 2   
     7     3    19 1   
     8     3    39 1   
     9     4     5 ar  
    10     4    26 ar  
    11     4    61 1   
    12     5    20 ar  
    13     5    43 1   
    14     6     7 1   
    15     6    28 ar  
    16     6    33 ar  
    17     7    12 2   
    18     7    40 1   
    19     8    21 1   
    20     8    41 1   
    21     8    44 1   
    22     8    45 1   
    23     9    10 2   
    24     9    38 1   
    25     9    46 1   
    26    10    22 1   
    27    10    47 1   
    28    11    22 2   
    29    11    38 1   
    30    11    48 1   
    31    12    23 1   
    32    14    20 ar  
    33    14    27 ar  
    34    14    34 1   
    35    15    16 ar  
    36    15    19 ar  
    37    15    49 1   
    38    16    25 ar  
    39    16    50 1   
    40    17    18 ar  
    41    17    19 ar  
    42    17    51 1   
    43    18    25 ar  
    44    18    52 1   
    45    20    36 1   
    46    23    24 2   
    47    24    25 1   
    48    24    40 1   
    49    26    27 ar  
    50    26    35 1   
    51    27    53 1   
    52    28    60 1   
    53    29    41 1   
    54    30    41 1   
    55    31    41 1   
    56    32    33 ar  
    57    32    54 1   
    58    33    55 1   
    59    36    37 1   
    60    36    39 1   
    61    36    56 1   
    62    37    38 1   
    63    37    57 1   
    64    37    58 1   
    65    39    59 1   
@<TRIPOS>SUBSTRUCTURE
     1 LFV         1 TEMP              0 ****  ****    0 ROOT
