@<TRIPOS>MOLECULE
LFX
   45    48     1     0     0
SMALL
No Charge or Current Charge


@<TRIPOS>ATOM
      1 C            5.3380    -0.4270     0.1860 c          1 LFX       0.726200
      2 N           -5.5980     0.3720    -0.0410 n3         1 LFX      -0.724600
      3 O            6.0310     0.5250     0.5170 o          1 LFX      -0.712000
      4 C01         -3.6120    -0.6840    -1.2650 c6         1 LFX       0.165300
      5 N01         -2.6790    -0.2550    -0.1750 nh         1 LFX      -0.780400
      6 O01         -0.8040     1.7550     0.4040 os         1 LFX      -0.314100
      7 C02         -3.3530     0.0030     1.1360 c6         1 LFX       0.165300
      8 N02          2.0100     1.2770     0.2400 na         1 LFX      -0.653200
      9 C03          1.4700     2.6670     0.3150 c6         1 LFX       0.200500
     10 O03          5.8380    -1.5160    -0.0440 o          1 LFX      -0.712000
     11 C04         -1.2760    -0.5300    -0.2280 ca         1 LFX       0.205000
     12 C05          1.0770     0.2360     0.0100 ca         1 LFX       0.250000
     13 C06         -0.3320     0.4910     0.0720 ca         1 LFX       0.092100
     14 C07         -4.8860     0.2250    -1.3500 c6         1 LFX       0.162800
     15 C08         -4.6350     0.8920     0.9830 c6         1 LFX       0.162800
     16 C09          0.1030     2.6730     1.0370 c6         1 LFX       0.138600
     17 C10          1.5170    -1.0490    -0.3110 ca         1 LFX      -0.167600
     18 C11         -0.7870    -1.8170    -0.5630 ca         1 LFX       0.098000
     19 C12          3.3920     1.0540     0.3880 cc         1 LFX       0.022000
     20 C13          0.5870    -2.0720    -0.5960 ca         1 LFX      -0.092000
     21 C14          1.3900     3.3240    -1.0880 c3         1 LFX      -0.106100
     22 C15          2.9750    -1.3270    -0.3270 c          1 LFX       0.590900
     23 C17          3.8630    -0.2200     0.0860 cd         1 LFX      -0.298400
     24 H01         -3.0970    -0.6540    -2.2360 h1         1 LFX       0.039700
     25 H01A        -3.9310    -1.7240    -1.0980 h1         1 LFX       0.039700
     26 H02         -3.6320    -0.9530     1.6020 h1         1 LFX       0.039700
     27 H02A        -2.6640     0.5070     1.8300 h1         1 LFX       0.039700
     28 H03          2.1560     3.2800     0.9190 h1         1 LFX       0.071700
     29 H07         -5.5640    -0.1800    -2.1160 h1         1 LFX       0.052200
     30 H07A        -4.5700     1.2160    -1.7090 h1         1 LFX       0.052200
     31 H08         -4.3120     1.9050     0.7020 h1         1 LFX       0.052200
     32 H08A        -5.1260     0.9840     1.9640 h1         1 LFX       0.052200
     33 H09         -0.3370     3.6800     1.0380 h1         1 LFX       0.058700
     34 H09A         0.2440     2.3590     2.0800 h1         1 LFX       0.058700
     35 H12          4.0200     1.8980     0.6730 h4         1 LFX       0.225000
     36 H13          0.9250    -3.0760    -0.8420 ha         1 LFX       0.152000
     37 H14          2.3780     3.3550    -1.5620 hc         1 LFX       0.047367
     38 H14A         0.7180     2.7700    -1.7530 hc         1 LFX       0.047367
     39 H14B         1.0220     4.3540    -1.0210 hc         1 LFX       0.047367
     40 H16         -5.5960    -1.6900     0.5490 h1         1 LFX       0.026700
     41 H16A        -6.8450    -0.6890     1.3240 h1         1 LFX       0.026700
     42 H16B        -7.0260    -1.1750    -0.3740 h1         1 LFX       0.026700
     43 O02          3.3660    -2.4400    -0.6640 o          1 LFX      -0.536100
     44 F           -1.6310    -2.8450    -0.8290 f          1 LFX      -0.196000
     45 C16         -6.2990    -0.8610     0.3870 c3         1 LFX       0.155100
@<TRIPOS>BOND
     1     1     3 1   
     2     1    10 1   
     3     1    23 1   
     4     2    14 1   
     5     2    15 1   
     6     2    45 1   
     7     4     5 1   
     8     4    14 1   
     9     4    24 1   
    10     4    25 1   
    11     5     7 1   
    12     5    11 1   
    13     6    13 1   
    14     6    16 1   
    15     7    15 1   
    16     7    26 1   
    17     7    27 1   
    18     8     9 1   
    19     8    12 1   
    20     8    19 1   
    21     9    16 1   
    22     9    21 1   
    23     9    28 1   
    24    11    13 ar  
    25    11    18 ar  
    26    12    13 ar  
    27    12    17 ar  
    28    14    29 1   
    29    14    30 1   
    30    15    31 1   
    31    15    32 1   
    32    16    33 1   
    33    16    34 1   
    34    17    20 ar  
    35    17    22 1   
    36    18    20 ar  
    37    18    44 1   
    38    19    23 2   
    39    19    35 1   
    40    20    36 1   
    41    21    37 1   
    42    21    38 1   
    43    21    39 1   
    44    22    23 1   
    45    22    43 2   
    46    40    45 1   
    47    41    45 1   
    48    42    45 1   
@<TRIPOS>SUBSTRUCTURE
     1 LFX         1 TEMP              0 ****  ****    0 ROOT
