@<TRIPOS>MOLECULE
LFX
   45    48     1     0     0
SMALL
abcg2


@<TRIPOS>ATOM
      1 C            5.2820    -0.4240     0.0730 c          1 LFX       0.726200
      2 N           -5.5410     0.2250     0.0260 n3         1 LFX      -0.724600
      3 O            5.9260     0.6420     0.1810 o          1 LFX      -0.712000
      4 C01         -3.4440    -0.2390    -1.2400 c6         1 LFX       0.165300
      5 N01         -2.6830     0.0400    -0.0300 nh         1 LFX      -0.780400
      6 O01         -0.7560     1.9220     0.2460 os         1 LFX      -0.314100
      7 C02         -3.3960    -0.2560     1.2030 c6         1 LFX       0.165300
      8 N02          1.9630     1.3000     0.1580 na         1 LFX      -0.653200
      9 C03          1.5300     2.6980     0.1410 c6         1 LFX       0.200500
     10 O03          5.7640    -1.5660    -0.0060 o          1 LFX      -0.712000
     11 C04         -1.3290    -0.3360    -0.0460 ca         1 LFX       0.205000
     12 C05          1.0110     0.3110     0.0650 ca         1 LFX       0.250000
     13 C06         -0.3580     0.6470     0.0920 ca         1 LFX       0.092100
     14 C07         -4.7720     0.5070    -1.1740 c6         1 LFX       0.162800
     15 C08         -4.7300     0.4830     1.2020 c6         1 LFX       0.162800
     16 C09          0.2030     2.7640     0.8680 c6         1 LFX       0.138600
     17 C10          1.4110    -1.0190    -0.0660 ca         1 LFX      -0.167600
     18 C11         -0.8830    -1.6600    -0.1760 ca         1 LFX       0.098000
     19 C12          3.2640     0.9820     0.1430 cc         1 LFX       0.022000
     20 C13          0.4370    -2.0150    -0.1850 ca         1 LFX      -0.092000
     21 C14          1.4660     3.2390    -1.2790 c3         1 LFX      -0.106100
     22 C15          2.8440    -1.3940    -0.0870 c          1 LFX       0.590900
     23 C17          3.7660    -0.2860     0.0440 cd         1 LFX      -0.298400
     24 H01         -2.8780     0.1200    -2.1020 h1         1 LFX       0.039700
     25 H01A        -3.6250    -1.3110    -1.3970 h1         1 LFX       0.039700
     26 H02         -3.5590    -1.3340     1.3490 h1         1 LFX       0.039700
     27 H02A        -2.7990     0.0940     2.0480 h1         1 LFX       0.039700
     28 H03          2.2550     3.2700     0.7230 h1         1 LFX       0.071700
     29 H07         -5.3730     0.2620    -2.0530 h1         1 LFX       0.052200
     30 H07A        -4.5710     1.5820    -1.2070 h1         1 LFX       0.052200
     31 H08         -4.5300     1.5590     1.2520 h1         1 LFX       0.052200
     32 H08A        -5.2970     0.2170     2.0970 h1         1 LFX       0.052200
     33 H09         -0.1980     3.7750     0.8380 h1         1 LFX       0.058700
     34 H09A         0.3320     2.4730     1.9160 h1         1 LFX       0.058700
     35 H12          3.9440     1.8200     0.2160 h4         1 LFX       0.225000
     36 H13          0.7280    -3.0520    -0.2820 ha         1 LFX       0.152000
     37 H14          2.4440     3.1860    -1.7570 hc         1 LFX       0.047367
     38 H14A         0.7570     2.6840    -1.8940 hc         1 LFX       0.047367
     39 H14B         1.1580     4.2840    -1.2640 hc         1 LFX       0.047367
     40 H16         -5.4840    -1.9400     0.0110 h1         1 LFX       0.026700
     41 H16A        -6.7960    -1.1820     0.9140 h1         1 LFX       0.026700
     42 H16B        -6.8200    -1.1700    -0.8470 h1         1 LFX       0.026700
     43 O02          3.1500    -2.5780    -0.2100 o          1 LFX      -0.536100
     44 F           -1.8130    -2.6240    -0.2780 f          1 LFX      -0.196000
     45 C16         -6.1690    -1.0810     0.0250 c3         1 LFX       0.155100
@<TRIPOS>BOND
     1     1     3 1   
     2     1    10 1   
     3     1    23 1   
     4     2    14 1   
     5     2    15 1   
     6     2    45 1   
     7     4     5 1   
     8     4    14 1   
     9     4    24 1   
    10     4    25 1   
    11     5     7 1   
    12     5    11 1   
    13     6    13 1   
    14     6    16 1   
    15     7    15 1   
    16     7    26 1   
    17     7    27 1   
    18     8     9 1   
    19     8    12 1   
    20     8    19 1   
    21     9    16 1   
    22     9    21 1   
    23     9    28 1   
    24    11    13 ar  
    25    11    18 ar  
    26    12    13 ar  
    27    12    17 ar  
    28    14    29 1   
    29    14    30 1   
    30    15    31 1   
    31    15    32 1   
    32    16    33 1   
    33    16    34 1   
    34    17    20 ar  
    35    17    22 1   
    36    18    20 ar  
    37    18    44 1   
    38    19    23 2   
    39    19    35 1   
    40    20    36 1   
    41    21    37 1   
    42    21    38 1   
    43    21    39 1   
    44    22    23 1   
    45    22    43 2   
    46    40    45 1   
    47    41    45 1   
    48    42    45 1   
@<TRIPOS>SUBSTRUCTURE
     1 LFX         1 TEMP              0 ****  ****    0 ROOT
