@<TRIPOS>MOLECULE
LFY
   32    33     1     0     0
SMALL
abcg2


@<TRIPOS>ATOM
      1 N1          -4.1990    -0.4280    -0.2380 na         1 LFY      -0.167500
      2 N3           0.0740     0.8750    -0.7700 ns         1 LFY      -0.494900
      3 C4          -2.2040     0.4220    -0.3200 cc         1 LFY       0.161500
      4 C5          -3.4640     0.6350     0.1740 cd         1 LFY      -0.147000
      5 C6          -1.0380     1.3050    -0.1500 c          1 LFY       0.544600
      6 C7           1.3380     1.5650    -0.7520 c3         1 LFY       0.149300
      7 C8           2.4710     0.6850    -0.2860 ca         1 LFY      -0.123300
      8 C10          4.7620    -0.0660    -0.5200 ca         1 LFY      -0.153000
      9 C13          2.3350    -0.1360     0.8310 ca         1 LFY      -0.072500
     10 C1          -5.8100    -1.0470     1.5280 c3         1 LFY      -0.113100
     11 C11          4.5890    -0.8650     0.5920 ca         1 LFY       0.171000
     12 C12          3.3900    -0.9160     1.2780 ca         1 LFY      -0.153000
     13 C2          -5.5970    -0.6820     0.0700 c3         1 LFY       0.070600
     14 C3          -3.3750    -1.2340    -0.9480 cd         1 LFY       0.393400
     15 C9           3.6910     0.7040    -0.9530 ca         1 LFY      -0.072500
     16 F1           5.6160    -1.6190     1.0200 f          1 LFY      -0.181000
     17 N2          -2.1650    -0.7510    -1.0200 nc         1 LFY      -0.670000
     18 O1          -1.1090     2.3360     0.5090 o          1 LFY      -0.620100
     19 H1           0.0050     0.0240    -1.3080 hn         1 LFY       0.338500
     20 H2          -3.8800     1.4390     0.7580 h4         1 LFY       0.175000
     21 H3           1.5700     1.9580    -1.7460 h1         1 LFY       0.063200
     22 H4           1.2420     2.4270    -0.0910 h1         1 LFY       0.063200
     23 H5           5.7090    -0.0470    -1.0440 ha         1 LFY       0.131500
     24 H6           1.3930    -0.1750     1.3640 ha         1 LFY       0.120500
     25 H7          -6.8660    -1.2460     1.7040 hc         1 LFY       0.051367
     26 H8          -5.2450    -1.9400     1.7960 hc         1 LFY       0.051367
     27 H9          -5.5070    -0.2360     2.1900 hc         1 LFY       0.051367
     28 H10          3.2820    -1.5540     2.1460 ha         1 LFY       0.131500
     29 H11         -6.1740     0.2030    -0.1980 h1         1 LFY       0.061700
     30 H12         -5.9280    -1.4910    -0.5800 h1         1 LFY       0.061700
     31 H13         -3.7180    -2.1580    -1.3880 h5         1 LFY       0.057100
     32 H14          3.8120     1.3280    -1.8310 ha         1 LFY       0.120500
@<TRIPOS>BOND
     1     1     4 1   
     2     1    13 1   
     3     1    14 1   
     4     2     5 1   
     5     2     6 1   
     6     2    19 1   
     7     3     4 2   
     8     3     5 1   
     9     3    17 1   
    10     4    20 1   
    11     5    18 2   
    12     6     7 1   
    13     6    21 1   
    14     6    22 1   
    15     7     9 ar  
    16     7    15 ar  
    17     8    11 ar  
    18     8    15 ar  
    19     8    23 1   
    20     9    12 ar  
    21     9    24 1   
    22    10    13 1   
    23    10    25 1   
    24    10    26 1   
    25    10    27 1   
    26    11    12 ar  
    27    11    16 1   
    28    12    28 1   
    29    13    29 1   
    30    13    30 1   
    31    14    17 2   
    32    14    31 1   
    33    15    32 1   
@<TRIPOS>SUBSTRUCTURE
     1 LFY         1 TEMP              0 ****  ****    0 ROOT
