@<TRIPOS>MOLECULE
LFY
   32    33     1     0     0
SMALL
No Charge or Current Charge


@<TRIPOS>ATOM
      1 N1          -4.1950    -0.5780    -0.3080 na         1 LFY      -0.167500
      2 N3           0.1270     0.8680    -0.0060 ns         1 LFY      -0.494900
      3 C4          -2.2130     0.3340    -0.1460 cc         1 LFY       0.161500
      4 C5          -3.5500     0.6390    -0.1650 cd         1 LFY      -0.147000
      5 C6          -1.1480     1.3860    -0.0030 c          1 LFY       0.544600
      6 C7           1.3480     1.6570     0.1170 c3         1 LFY       0.149300
      7 C8           2.5790     0.7650     0.0760 ca         1 LFY      -0.123300
      8 C10          4.3330    -0.3640    -1.1910 ca         1 LFY      -0.153000
      9 C13          3.1040     0.2270     1.2690 ca         1 LFY      -0.072500
     10 C1          -6.3040    -0.8780     1.0100 c3         1 LFY      -0.113100
     11 C11          4.8510    -0.8930     0.0010 ca         1 LFY       0.171000
     12 C12          4.2400    -0.6010     1.2300 ca         1 LFY      -0.153000
     13 C2          -5.6480    -0.7900    -0.3790 c3         1 LFY       0.070600
     14 C3          -3.2190    -1.5650    -0.3690 cd         1 LFY       0.393400
     15 C9           3.1970     0.4640    -1.1540 ca         1 LFY      -0.072500
     16 F1           5.9420    -1.6890    -0.0350 f          1 LFY      -0.181000
     17 N2          -2.0100    -1.0250    -0.2720 nc         1 LFY      -0.670000
     18 O1          -1.3570     2.5900     0.1070 o          1 LFY      -0.620100
     19 H1           0.1970    -0.1390    -0.1030 hn         1 LFY       0.338500
     20 H2          -4.0600     1.5920    -0.0890 h4         1 LFY       0.175000
     21 H3           1.3880     2.3860    -0.7040 h1         1 LFY       0.063200
     22 H4           1.3210     2.2130     1.0630 h1         1 LFY       0.063200
     23 H5           4.8110    -0.5960    -2.1390 ha         1 LFY       0.131500
     24 H6           2.6320     0.4500     2.2240 ha         1 LFY       0.120500
     25 H7          -7.3840    -1.0350     0.9120 hc         1 LFY       0.051367
     26 H8          -5.8850    -1.7140     1.5840 hc         1 LFY       0.051367
     27 H9          -6.1400     0.0480     1.5750 hc         1 LFY       0.051367
     28 H10          4.6470    -1.0150     2.1490 ha         1 LFY       0.131500
     29 H11         -6.0970     0.0390    -0.9420 h1         1 LFY       0.061700
     30 H12         -5.8450    -1.7170    -0.9340 h1         1 LFY       0.061700
     31 H13         -3.4600    -2.6160    -0.4790 h5         1 LFY       0.057100
     32 H14          2.7970     0.8710    -2.0810 ha         1 LFY       0.120500
@<TRIPOS>BOND
     1     1     4 1   
     2     1    13 1   
     3     1    14 1   
     4     2     5 1   
     5     2     6 1   
     6     2    19 1   
     7     3     4 2   
     8     3     5 1   
     9     3    17 1   
    10     4    20 1   
    11     5    18 2   
    12     6     7 1   
    13     6    21 1   
    14     6    22 1   
    15     7     9 ar  
    16     7    15 ar  
    17     8    11 ar  
    18     8    15 ar  
    19     8    23 1   
    20     9    12 ar  
    21     9    24 1   
    22    10    13 1   
    23    10    25 1   
    24    10    26 1   
    25    10    27 1   
    26    11    12 ar  
    27    11    16 1   
    28    12    28 1   
    29    13    29 1   
    30    13    30 1   
    31    14    17 2   
    32    14    31 1   
    33    15    32 1   
@<TRIPOS>SUBSTRUCTURE
     1 LFY         1 TEMP              0 ****  ****    0 ROOT
