@<TRIPOS>MOLECULE
LFZ
   33    34     1     0     0
SMALL
No Charge or Current Charge


@<TRIPOS>ATOM
      1 C2           4.1170    -0.0830     0.6530 ca         1 LFZ       0.038700
      2 C4           1.9710     1.0500     0.9220 ca         1 LFZ      -0.090500
      3 C5           3.4460    -1.1830     0.0890 ca         1 LFZ      -0.116000
      4 C6           2.0480    -1.1680    -0.0580 ca         1 LFZ      -0.090500
      5 F5          -4.3240    -2.5230    -0.2650 f          1 LFZ      -0.115667
      6 F3          -3.5330    -2.6390     1.7560 f          1 LFZ      -0.115667
      7 F4          -2.4840    -3.6050     0.1150 f          1 LFZ      -0.115667
      8 C13         -2.3780    -1.2110     0.2380 ca         1 LFZ      -0.205800
      9 C12         -3.0330    -0.0020    -0.0770 ca         1 LFZ      -0.039000
     10 C10         -2.3000     1.1870    -0.2720 ca         1 LFZ      -0.205800
     11 C11         -3.0180     2.4980    -0.6110 c3         1 LFZ       0.357800
     12 F2          -2.2620     3.3140    -1.3810 f          1 LFZ      -0.115667
     13 F1          -4.1730     2.2950    -1.2870 f          1 LFZ      -0.115667
     14 F           -3.3310     3.1890     0.5070 f          1 LFZ      -0.115667
     15 C9          -0.8970     1.1590    -0.1260 ca         1 LFZ      -0.041500
     16 C15         -0.9740    -1.2140     0.3790 ca         1 LFZ      -0.041500
     17 C8          -0.2100    -0.0350     0.2000 cp         1 LFZ       0.010000
     18 C7           1.2800    -0.0510     0.3560 cp         1 LFZ      -0.114000
     19 C3           3.3680     1.0330     1.0690 ca         1 LFZ      -0.116000
     20 C1           5.6320    -0.1020     0.8170 c3         1 LFZ      -0.200100
     21 C            6.2860     0.4780    -0.4440 c          1 LFZ       0.727000
     22 O            6.4440     1.6880    -0.5040 o          1 LFZ      -0.720500
     23 O1           6.5120    -0.2810    -1.3750 o          1 LFZ      -0.720500
     24 H1           1.4190     1.9210     1.2660 ha         1 LFZ       0.094000
     25 H2           4.0100    -2.0520    -0.2430 ha         1 LFZ       0.114500
     26 H3           1.5600    -2.0280    -0.5100 ha         1 LFZ       0.094000
     27 H4          -4.1190     0.0140    -0.1650 ha         1 LFZ       0.137000
     28 H5          -0.3250     2.0720    -0.2730 ha         1 LFZ       0.138500
     29 H6          -0.4640    -2.1350     0.6510 ha         1 LFZ       0.138500
     30 H7           3.8710     1.8910     1.5090 ha         1 LFZ       0.114500
     31 H8           5.8720     0.5210     1.6860 hc         1 LFZ       0.036200
     32 H9           5.9300    -1.1490     0.9480 hc         1 LFZ       0.036200
     33 C14         -3.1820    -2.4970     0.4590 c3         1 LFZ       0.357800
@<TRIPOS>BOND
     1     1     3 ar  
     2     1    19 ar  
     3     1    20 1   
     4     2    18 ar  
     5     2    19 ar  
     6     2    24 1   
     7     3     4 ar  
     8     3    25 1   
     9     4    18 ar  
    10     4    26 1   
    11     5    33 1   
    12     6    33 1   
    13     7    33 1   
    14     8     9 ar  
    15     8    16 ar  
    16     8    33 1   
    17     9    10 ar  
    18     9    27 1   
    19    10    11 1   
    20    10    15 ar  
    21    11    12 1   
    22    11    13 1   
    23    11    14 1   
    24    15    17 ar  
    25    15    28 1   
    26    16    17 ar  
    27    16    29 1   
    28    17    18 1   
    29    19    30 1   
    30    20    21 1   
    31    20    31 1   
    32    20    32 1   
    33    21    22 1   
    34    21    23 1   
@<TRIPOS>SUBSTRUCTURE
     1 LFZ         1 TEMP              0 ****  ****    0 ROOT
