@<TRIPOS>MOLECULE
LFZ
   33    34     1     0     0
SMALL
abcg2


@<TRIPOS>ATOM
      1 C2           4.0440    -0.1420     0.6190 ca         1 LFZ       0.038700
      2 C4           1.9300     1.0080     0.8980 ca         1 LFZ      -0.090500
      3 C5           3.3450    -1.2100     0.0630 ca         1 LFZ      -0.116000
      4 C6           1.9660    -1.1770    -0.0760 ca         1 LFZ      -0.090500
      5 F5          -4.4560    -2.2620     0.2950 f          1 LFZ      -0.115667
      6 F3          -2.9210    -2.9460     1.6400 f          1 LFZ      -0.115667
      7 F4          -2.7650    -3.3560    -0.4630 f          1 LFZ      -0.115667
      8 C13         -2.3750    -1.1490     0.2300 ca         1 LFZ      -0.205800
      9 C12         -3.0280     0.0340    -0.0800 ca         1 LFZ      -0.039000
     10 C10         -2.2740     1.1860    -0.2480 ca         1 LFZ      -0.205800
     11 C11         -2.9300     2.4930    -0.5720 c3         1 LFZ       0.357800
     12 F2          -2.3910     3.0620    -1.6570 f          1 LFZ      -0.115667
     13 F1          -4.2390     2.3680    -0.8000 f          1 LFZ      -0.115667
     14 F           -2.7880     3.3720     0.4300 f          1 LFZ      -0.115667
     15 C9          -0.8930     1.1570    -0.1130 ca         1 LFZ      -0.041500
     16 C15         -0.9960    -1.1820     0.3730 ca         1 LFZ      -0.041500
     17 C8          -0.2330    -0.0290     0.2000 cp         1 LFZ       0.010000
     18 C7           1.2340    -0.0660     0.3400 cp         1 LFZ      -0.114000
     19 C3           3.3080     0.9680     1.0310 ca         1 LFZ      -0.116000
     20 C1           5.5300    -0.1820     0.7580 c3         1 LFZ      -0.200100
     21 C            6.3020     0.5480    -0.3720 c          1 LFZ       0.727000
     22 O            5.6490     1.2790    -1.1370 o          1 LFZ      -0.720500
     23 O1           7.5310     0.3440    -0.3920 o          1 LFZ      -0.720500
     24 H1           1.3900     1.8770     1.2550 ha         1 LFZ       0.094000
     25 H2           3.8870    -2.0860    -0.2730 ha         1 LFZ       0.114500
     26 H3           1.4620    -2.0220    -0.5290 ha         1 LFZ       0.094000
     27 H4          -4.1020     0.0590    -0.1880 ha         1 LFZ       0.137000
     28 H5          -0.3120     2.0570    -0.2690 ha         1 LFZ       0.138500
     29 H6          -0.4990    -2.1060     0.6410 ha         1 LFZ       0.138500
     30 H7           3.8180     1.8110     1.4820 ha         1 LFZ       0.114500
     31 H8           5.8280     0.2840     1.7040 hc         1 LFZ       0.036200
     32 H9           5.8770    -1.2170     0.8140 hc         1 LFZ       0.036200
     33 C14         -3.1380    -2.4250     0.4250 c3         1 LFZ       0.357800
@<TRIPOS>BOND
     1     1     3 ar  
     2     1    19 ar  
     3     1    20 1   
     4     2    18 ar  
     5     2    19 ar  
     6     2    24 1   
     7     3     4 ar  
     8     3    25 1   
     9     4    18 ar  
    10     4    26 1   
    11     5    33 1   
    12     6    33 1   
    13     7    33 1   
    14     8     9 ar  
    15     8    16 ar  
    16     8    33 1   
    17     9    10 ar  
    18     9    27 1   
    19    10    11 1   
    20    10    15 ar  
    21    11    12 1   
    22    11    13 1   
    23    11    14 1   
    24    15    17 ar  
    25    15    28 1   
    26    16    17 ar  
    27    16    29 1   
    28    17    18 1   
    29    19    30 1   
    30    20    21 1   
    31    20    31 1   
    32    20    32 1   
    33    21    22 1   
    34    21    23 1   
@<TRIPOS>SUBSTRUCTURE
     1 LFZ         1 TEMP              0 ****  ****    0 ROOT
