@<TRIPOS>MOLECULE
LG0
   66    71     1     0     0
SMALL
abcg2


@<TRIPOS>ATOM
      1 C13          2.0120     0.7640    -0.3370 cc         1 LG0      -0.217600
      2 C18         -3.4820    -0.8720    -1.8540 ca         1 LG0      -0.087500
      3 C17         -5.4560    -1.8210    -0.6420 cx         1 LG0      -0.070700
      4 C16         -4.0950    -1.2060    -0.6500 ca         1 LG0      -0.028300
      5 C15          6.0240    -5.1680     1.5990 c3         1 LG0       0.146900
      6 C19          0.7870     2.8850    -0.7450 c6         1 LG0      -0.016100
      7 C20         -0.1800     1.9340    -1.4350 c6         1 LG0       0.112000
      8 C21         -5.6460    -3.1480    -1.3140 cx         1 LG0      -0.122400
      9 C22         -2.2340    -0.2680    -1.8810 ca         1 LG0      -0.107500
     10 C23         -6.5870    -0.8210    -0.7930 c3         1 LG0       0.212800
     11 C12          2.0390     2.1300    -0.4750 cd         1 LG0      -0.118300
     12 C27         -7.4480     1.3260    -0.0700 c5         1 LG0       0.163800
     13 C1           4.8140    -3.5160     0.4020 ca         1 LG0       0.159100
     14 C2           5.0380    -2.5460     1.3770 ca         1 LG0      -0.167500
     15 C3           4.5170    -1.2700     1.2130 ca         1 LG0      -0.039000
     16 C4           3.7810    -0.9580     0.0850 ca         1 LG0      -0.045200
     17 C5           3.5600    -1.9170    -0.8960 ca         1 LG0      -0.039000
     18 C6           4.0690    -3.1890    -0.7360 ca         1 LG0      -0.167500
     19 N1           3.2810     0.3590    -0.0820 na         1 LG0       0.295000
     20 N6           4.1170     1.3800    -0.0490 nc         1 LG0      -0.443800
     21 N5          -0.3100     0.6620    -0.7120 n          1 LG0      -0.235400
     22 C7          -1.5800     0.0260    -0.6910 ca         1 LG0      -0.052000
     23 C44         -2.1830    -0.2910     0.5190 ca         1 LG0      -0.107500
     24 C14         -3.4280    -0.9020     0.5330 ca         1 LG0      -0.087500
     25 C8           0.7790    -0.0370    -0.2930 c          1 LG0       0.606600
     26 C10          3.3840     2.4560    -0.2710 cd         1 LG0       0.127300
     27 O3           0.7400    -1.1780     0.1290 o          1 LG0      -0.524000
     28 F1           5.3090     3.7700    -0.0890 f          1 LG0      -0.107333
     29 F2           3.7910     4.4100    -1.4810 f          1 LG0      -0.107333
     30 F3           3.4560     4.6080     0.6290 f          1 LG0      -0.107333
     31 C9          -5.7010    -3.0490     0.1810 cx         1 LG0      -0.122400
     32 N2          -6.5780     0.2020     0.2190 n3         1 LG0      -0.722600
     33 C25         -6.9490    -0.2400     1.5510 c5         1 LG0       0.163800
     34 C29         -7.2890     1.0520     2.3130 c5         1 LG0      -0.080900
     35 C30         -7.3990     2.1320     1.2200 c5         1 LG0      -0.080900
     36 H18         -3.9790    -1.1010    -2.7890 ha         1 LG0       0.115000
     37 H15          5.4400    -5.0940     2.5200 h1         1 LG0       0.044033
     38 H15A         6.2980    -6.2080     1.4410 h1         1 LG0       0.044033
     39 H15B         6.9370    -4.5780     1.7100 h1         1 LG0       0.044033
     40 H19          0.9590     3.7430    -1.3940 hc         1 LG0       0.072700
     41 H19A         0.3610     3.2640     0.1880 hc         1 LG0       0.072700
     42 H20         -1.1690     2.3830    -1.4930 h1         1 LG0       0.055200
     43 H20A         0.1600     1.7480    -2.4580 h1         1 LG0       0.055200
     44 H21         -6.5710    -3.3160    -1.8530 hc         1 LG0       0.074200
     45 H21A        -4.7800    -3.6200    -1.7610 hc         1 LG0       0.074200
     46 H22         -1.7690    -0.0340    -2.8310 ha         1 LG0       0.119500
     47 H23         -6.4930    -0.3340    -1.7690 h1         1 LG0       0.032200
     48 H23A        -7.5450    -1.3730    -0.8110 h1         1 LG0       0.032200
     49 H27         -7.0930     1.8790    -0.9420 h1         1 LG0       0.033450
     50 H27A        -8.4840     1.0060    -0.2820 h1         1 LG0       0.033450
     51 H2           5.6070    -2.7630     2.2700 ha         1 LG0       0.130000
     52 H3           4.6860    -0.5220     1.9770 ha         1 LG0       0.130500
     53 H5           3.0020    -1.6700    -1.7890 ha         1 LG0       0.130500
     54 H6           3.9020    -3.9400    -1.4970 ha         1 LG0       0.130000
     55 H44         -1.6890    -0.0510     1.4510 ha         1 LG0       0.119500
     56 H14         -3.8830    -1.1480     1.4840 ha         1 LG0       0.115000
     57 H9          -4.8760    -3.4650     0.7470 hc         1 LG0       0.074200
     58 H9A         -6.6660    -3.1470     0.6650 hc         1 LG0       0.074200
     59 H25         -7.8290    -0.9060     1.5220 h1         1 LG0       0.033450
     60 H25A        -6.1430    -0.8040     2.0220 h1         1 LG0       0.033450
     61 H29         -8.2250     0.9380     2.8600 hc         1 LG0       0.046450
     62 H29A        -6.5220     1.3020     3.0460 hc         1 LG0       0.046450
     63 H30         -6.5150     2.7710     1.2250 hc         1 LG0       0.046450
     64 H30A        -8.2700     2.7750     1.3410 hc         1 LG0       0.046450
     65 C11          3.9960     3.8080    -0.3010 c3         1 LG0       0.296700
     66 O1           5.2730    -4.7760     0.4660 os         1 LG0      -0.336100
@<TRIPOS>BOND
     1     1    11 2   
     2     1    19 1   
     3     1    25 1   
     4     2     4 ar  
     5     2     9 ar  
     6     2    36 1   
     7     3     4 1   
     8     3     8 1   
     9     3    10 1   
    10     3    31 1   
    11     4    24 ar  
    12     5    37 1   
    13     5    38 1   
    14     5    39 1   
    15     5    66 1   
    16     6     7 1   
    17     6    11 1   
    18     6    40 1   
    19     6    41 1   
    20     7    21 1   
    21     7    42 1   
    22     7    43 1   
    23     8    31 1   
    24     8    44 1   
    25     8    45 1   
    26     9    22 ar  
    27     9    46 1   
    28    10    32 1   
    29    10    47 1   
    30    10    48 1   
    31    11    26 1   
    32    12    32 1   
    33    12    35 1   
    34    12    49 1   
    35    12    50 1   
    36    13    14 ar  
    37    13    18 ar  
    38    13    66 1   
    39    14    15 ar  
    40    14    51 1   
    41    15    16 ar  
    42    15    52 1   
    43    16    17 ar  
    44    16    19 1   
    45    17    18 ar  
    46    17    53 1   
    47    18    54 1   
    48    19    20 1   
    49    20    26 2   
    50    21    22 1   
    51    21    25 1   
    52    22    23 ar  
    53    23    24 ar  
    54    23    55 1   
    55    24    56 1   
    56    25    27 2   
    57    26    65 1   
    58    28    65 1   
    59    29    65 1   
    60    30    65 1   
    61    31    57 1   
    62    31    58 1   
    63    32    33 1   
    64    33    34 1   
    65    33    59 1   
    66    33    60 1   
    67    34    35 1   
    68    34    61 1   
    69    34    62 1   
    70    35    63 1   
    71    35    64 1   
@<TRIPOS>SUBSTRUCTURE
     1 LG0         1 TEMP              0 ****  ****    0 ROOT
