@<TRIPOS>MOLECULE
LG0
   66    71     1     0     0
SMALL
No Charge or Current Charge


@<TRIPOS>ATOM
      1 C13          2.1040     0.7390    -0.4950 cc         1 LG0      -0.217600
      2 C18         -3.6990    -0.3470    -2.1570 ca         1 LG0      -0.087500
      3 C17         -5.5660    -1.6080    -1.0140 cx         1 LG0      -0.070700
      4 C16         -4.2000    -0.9710    -1.0010 ca         1 LG0      -0.028300
      5 C15          5.6450    -5.1430     2.4390 c3         1 LG0       0.146900
      6 C19          1.0490     2.9040    -1.2090 c6         1 LG0      -0.016100
      7 C20         -0.0180     1.9780    -1.8340 c6         1 LG0       0.112000
      8 C21         -5.8280    -2.7360    -1.9930 cx         1 LG0      -0.122400
      9 C22         -2.4240     0.2460    -2.1530 ca         1 LG0      -0.107500
     10 C23         -6.6810    -0.5790    -0.7820 c3         1 LG0       0.212800
     11 C12          2.2230     2.0600    -0.7990 cd         1 LG0      -0.118300
     12 C27         -7.6220     1.2040     0.6880 c5         1 LG0       0.163800
     13 C1           4.6720    -3.4860     0.8880 ca         1 LG0       0.159100
     14 C2           4.7940    -2.4300     1.8170 ca         1 LG0      -0.167500
     15 C3           4.3680    -1.1350     1.4700 ca         1 LG0      -0.039000
     16 C4           3.8140    -0.8840     0.2000 ca         1 LG0      -0.045200
     17 C5           3.6990    -1.9390    -0.7270 ca         1 LG0      -0.039000
     18 C6           4.1260    -3.2320    -0.3800 ca         1 LG0      -0.167500
     19 N1           3.3990     0.4030    -0.1410 na         1 LG0       0.295000
     20 N6           4.3280     1.4150    -0.2250 nc         1 LG0      -0.443800
     21 N5          -0.2780     0.7460    -1.0280 n          1 LG0      -0.235400
     22 C7          -1.6440     0.2770    -0.9760 ca         1 LG0      -0.052000
     23 C44         -2.1230    -0.4180     0.1560 ca         1 LG0      -0.107500
     24 C14         -3.3970    -1.0100     0.1530 ca         1 LG0      -0.087500
     25 C8           0.8240    -0.0010    -0.5110 c          1 LG0       0.606600
     26 C10          3.5820     2.4390    -0.6230 cd         1 LG0       0.127300
     27 O3           0.7200    -1.1530    -0.1090 o          1 LG0      -0.524000
     28 F1           5.4640     3.9230    -0.4670 f          1 LG0      -0.107333
     29 F2           4.1160     4.1830    -2.1510 f          1 LG0      -0.107333
     30 F3           3.4890     4.7720    -0.1550 f          1 LG0      -0.107333
     31 C9          -5.7480    -3.0290    -0.5160 cx         1 LG0      -0.122400
     32 N2          -6.6300     0.1250     0.5210 n3         1 LG0      -0.722600
     33 C25         -6.8520    -0.7100     1.7190 c5         1 LG0       0.163800
     34 C29         -6.8370     0.3530     2.8480 c5         1 LG0      -0.080900
     35 C30         -7.3520     1.6510     2.1490 c5         1 LG0      -0.080900
     36 H18         -4.2930    -0.3350    -3.0680 ha         1 LG0       0.115000
     37 H15          4.9390    -4.9480     3.2560 h1         1 LG0       0.044033
     38 H15A         5.8900    -6.2120     2.4500 h1         1 LG0       0.044033
     39 H15B         6.5680    -4.5800     2.6280 h1         1 LG0       0.044033
     40 H19          1.3360     3.6820    -1.9290 hc         1 LG0       0.072700
     41 H19A         0.6270     3.4170    -0.3340 hc         1 LG0       0.072700
     42 H20         -0.9500     2.5460    -1.9620 h1         1 LG0       0.055200
     43 H20A         0.3190     1.6680    -2.8330 h1         1 LG0       0.055200
     44 H21         -6.8060    -2.7880    -2.4670 hc         1 LG0       0.074200
     45 H21A        -5.0040    -3.0710    -2.6180 hc         1 LG0       0.074200
     46 H22         -2.0500     0.6830    -3.0760 ha         1 LG0       0.119500
     47 H23         -6.6230     0.1610    -1.5920 h1         1 LG0       0.032200
     48 H23A        -7.6540    -1.0790    -0.8870 h1         1 LG0       0.032200
     49 H27         -7.4780     2.0240    -0.0290 h1         1 LG0       0.033450
     50 H27A        -8.6470     0.8240     0.5720 h1         1 LG0       0.033450
     51 H2           5.2150    -2.5920     2.8050 ha         1 LG0       0.130000
     52 H3           4.4660    -0.3250     2.1910 ha         1 LG0       0.130500
     53 H5           3.2800    -1.7550    -1.7140 ha         1 LG0       0.130500
     54 H6           4.0330    -4.0430    -1.0980 ha         1 LG0       0.130000
     55 H44         -1.5200    -0.4750     1.0580 ha         1 LG0       0.119500
     56 H14         -3.7590    -1.5060     1.0500 ha         1 LG0       0.115000
     57 H9          -4.8710    -3.5620    -0.1560 hc         1 LG0       0.074200
     58 H9A         -6.6720    -3.2770     0.0000 hc         1 LG0       0.074200
     59 H25         -7.8230    -1.2240     1.6710 h1         1 LG0       0.033450
     60 H25A        -6.0710    -1.4690     1.8620 h1         1 LG0       0.033450
     61 H29         -7.4650     0.0530     3.6940 hc         1 LG0       0.046450
     62 H29A        -5.8210     0.4970     3.2350 hc         1 LG0       0.046450
     63 H30         -6.5910     2.4390     2.1830 hc         1 LG0       0.046450
     64 H30A        -8.2550     2.0530     2.6220 hc         1 LG0       0.046450
     65 C11          4.1670     3.8280    -0.8470 c3         1 LG0       0.296700
     66 O1           5.0730    -4.7770     1.1700 os         1 LG0      -0.336100
@<TRIPOS>BOND
     1     1    11 2   
     2     1    19 1   
     3     1    25 1   
     4     2     4 ar  
     5     2     9 ar  
     6     2    36 1   
     7     3     4 1   
     8     3     8 1   
     9     3    10 1   
    10     3    31 1   
    11     4    24 ar  
    12     5    37 1   
    13     5    38 1   
    14     5    39 1   
    15     5    66 1   
    16     6     7 1   
    17     6    11 1   
    18     6    40 1   
    19     6    41 1   
    20     7    21 1   
    21     7    42 1   
    22     7    43 1   
    23     8    31 1   
    24     8    44 1   
    25     8    45 1   
    26     9    22 ar  
    27     9    46 1   
    28    10    32 1   
    29    10    47 1   
    30    10    48 1   
    31    11    26 1   
    32    12    32 1   
    33    12    35 1   
    34    12    49 1   
    35    12    50 1   
    36    13    14 ar  
    37    13    18 ar  
    38    13    66 1   
    39    14    15 ar  
    40    14    51 1   
    41    15    16 ar  
    42    15    52 1   
    43    16    17 ar  
    44    16    19 1   
    45    17    18 ar  
    46    17    53 1   
    47    18    54 1   
    48    19    20 1   
    49    20    26 2   
    50    21    22 1   
    51    21    25 1   
    52    22    23 ar  
    53    23    24 ar  
    54    23    55 1   
    55    24    56 1   
    56    25    27 2   
    57    26    65 1   
    58    28    65 1   
    59    29    65 1   
    60    30    65 1   
    61    31    57 1   
    62    31    58 1   
    63    32    33 1   
    64    33    34 1   
    65    33    59 1   
    66    33    60 1   
    67    34    35 1   
    68    34    61 1   
    69    34    62 1   
    70    35    63 1   
    71    35    64 1   
@<TRIPOS>SUBSTRUCTURE
     1 LG0         1 TEMP              0 ****  ****    0 ROOT
