@<TRIPOS>MOLECULE
LG2
   55    58     1     0     0
SMALL
abcg2


@<TRIPOS>ATOM
      1 C1          -0.1610    -0.6040     2.4440 ca         1 LG2      -0.070300
      2 C2           0.3330    -1.0770     1.2260 ca         1 LG2      -0.100000
      3 C3           1.0750    -0.3030     0.3520 ca         1 LG2      -0.031300
      4 C4           1.3480     1.0280     0.6970 ca         1 LG2      -0.055300
      5 C5           0.8380     1.5070     1.8930 ca         1 LG2      -0.120000
      6 C6           0.0710     0.7350     2.7710 ca         1 LG2      -0.066300
      7 C7          -0.4540     1.3860     4.0460 c6         1 LG2       0.004300
      8 C8          -1.5160     0.4950     4.6980 c6         1 LG2      -0.065400
      9 C9          -1.1010    -0.9610     4.7410 c6         1 LG2      -0.065400
     10 C10         -0.9350    -1.5610     3.3420 c6         1 LG2       0.005300
     11 C11          1.5510    -0.8670    -0.9480 cx         1 LG2      -0.121000
     12 C12          0.7850    -0.4590    -2.1640 ca         1 LG2       0.342300
     13 N13          1.3090    -0.7700    -3.3480 nb         1 LG2      -0.722000
     14 C14          0.6460    -0.4510    -4.4510 ca         1 LG2       0.348900
     15 C15         -0.5840     0.1990    -4.4660 ca         1 LG2      -0.175600
     16 C16         -1.1260     0.5190    -3.2270 ca         1 LG2      -0.064000
     17 C17         -0.4450     0.1910    -2.0680 ca         1 LG2      -0.181000
     18 C18         -1.2930     0.5370    -5.7660 c          1 LG2       0.717600
     19 O19         -2.4000     1.0990    -5.6620 o          1 LG2      -0.717500
     20 O20         -0.7070     0.2200    -6.8190 o          1 LG2      -0.717500
     21 C21          3.0320    -1.1110    -1.1020 cx         1 LG2      -0.112400
     22 C22          2.1120    -2.2710    -0.9650 cx         1 LG2      -0.112400
     23 C23          0.7170     1.6110     5.0130 c3         1 LG2      -0.079600
     24 C24         -1.1080     2.7390     3.7390 c3         1 LG2      -0.079600
     25 C25         -2.3140    -1.8370     2.7250 c3         1 LG2      -0.080600
     26 C26         -0.1910    -2.8930     3.4930 c3         1 LG2      -0.080600
     27 C27          2.1480     1.9300    -0.1960 c3         1 LG2      -0.047800
     28 HC2          0.1270    -2.1020     0.9350 ha         1 LG2       0.114000
     29 HC5          1.0470     2.5390     2.1520 ha         1 LG2       0.102000
     30 HC81        -2.4560     0.5920     4.1460 hc         1 LG2       0.038200
     31 HC82        -1.7190     0.8660     5.7070 hc         1 LG2       0.038200
     32 HC91        -1.8360    -1.5530     5.2940 hc         1 LG2       0.035700
     33 HC92        -0.1610    -1.0600     5.2940 hc         1 LG2       0.035700
     34 HC41         1.1170    -0.7260    -5.3880 h4         1 LG2       0.031100
     35 HC61        -2.0810     1.0250    -3.1710 ha         1 LG2       0.131000
     36 HC71        -0.8650     0.4330    -1.1010 ha         1 LG2       0.105000
     37 H211         3.4740    -0.9150    -2.0710 hc         1 LG2       0.072200
     38 H212         3.6540    -0.8540    -0.2540 hc         1 LG2       0.072200
     39 H221         2.1130    -2.8250    -0.0350 hc         1 LG2       0.072200
     40 H222         1.9120    -2.8680    -1.8450 hc         1 LG2       0.072200
     41 H231         0.3740     2.1100     5.9220 hc         1 LG2       0.031867
     42 H232         1.1920     0.6730     5.3060 hc         1 LG2       0.031867
     43 H233         1.4850     2.2400     4.5610 hc         1 LG2       0.031867
     44 H241        -1.5430     3.1550     4.6500 hc         1 LG2       0.031867
     45 H242        -0.3990     3.4730     3.3550 hc         1 LG2       0.031867
     46 H243        -1.9090     2.6290     3.0060 hc         1 LG2       0.031867
     47 H251        -2.8620    -2.5620     3.3320 hc         1 LG2       0.033533
     48 H252        -2.9190    -0.9320     2.6600 hc         1 LG2       0.033533
     49 H253        -2.2230    -2.2450     1.7170 hc         1 LG2       0.033533
     50 H261        -0.6980    -3.5170     4.2320 hc         1 LG2       0.033533
     51 H262        -0.1540    -3.4650     2.5640 hc         1 LG2       0.033533
     52 H263         0.8350    -2.7390     3.8340 hc         1 LG2       0.033533
     53 H271         3.1150     1.4950    -0.4530 hc         1 LG2       0.045033
     54 H272         1.6340     2.1290    -1.1390 hc         1 LG2       0.045033
     55 H273         2.3310     2.8910     0.2830 hc         1 LG2       0.045033
@<TRIPOS>BOND
     1     1     2 ar  
     2     1     6 ar  
     3     1    10 1   
     4     2     3 ar  
     5     2    28 1   
     6     3     4 ar  
     7     3    11 1   
     8     4     5 ar  
     9     4    27 1   
    10     5     6 ar  
    11     5    29 1   
    12     6     7 1   
    13     7     8 1   
    14     7    23 1   
    15     7    24 1   
    16     8     9 1   
    17     8    30 1   
    18     8    31 1   
    19     9    10 1   
    20     9    32 1   
    21     9    33 1   
    22    10    25 1   
    23    10    26 1   
    24    11    12 1   
    25    11    21 1   
    26    11    22 1   
    27    12    13 ar  
    28    12    17 ar  
    29    13    14 ar  
    30    14    15 ar  
    31    14    34 1   
    32    15    16 ar  
    33    15    18 1   
    34    16    17 ar  
    35    16    35 1   
    36    17    36 1   
    37    18    19 1   
    38    18    20 1   
    39    21    22 1   
    40    21    37 1   
    41    21    38 1   
    42    22    39 1   
    43    22    40 1   
    44    23    41 1   
    45    23    42 1   
    46    23    43 1   
    47    24    44 1   
    48    24    45 1   
    49    24    46 1   
    50    25    47 1   
    51    25    48 1   
    52    25    49 1   
    53    26    50 1   
    54    26    51 1   
    55    26    52 1   
    56    27    53 1   
    57    27    54 1   
    58    27    55 1   
@<TRIPOS>SUBSTRUCTURE
     1 LG2         1 TEMP              0 ****  ****    0 ROOT
