@<TRIPOS>MOLECULE
LG2
   55    58     1     0     0
SMALL
No Charge or Current Charge


@<TRIPOS>ATOM
      1 C1          -0.1490    -0.5900     2.3770 ca         1 LG2      -0.070300
      2 C2           0.3750    -1.0950     1.1690 ca         1 LG2      -0.100000
      3 C3           1.1950    -0.3210     0.3190 ca         1 LG2      -0.031300
      4 C4           1.5120     1.0190     0.6650 ca         1 LG2      -0.055300
      5 C5           0.9960     1.5760     1.8500 ca         1 LG2      -0.120000
      6 C6           0.1480     0.7980     2.7070 ca         1 LG2      -0.066300
      7 C7          -0.4040     1.4940     4.0050 c6         1 LG2       0.004300
      8 C8          -1.5480     0.6520     4.6430 c6         1 LG2      -0.065400
      9 C9          -1.2100    -0.8510     4.7000 c6         1 LG2      -0.065400
     10 C10         -1.0390    -1.4770     3.2840 c6         1 LG2       0.005300
     11 C11          1.7050    -0.9590    -0.9590 cx         1 LG2      -0.121000
     12 C12          0.8160    -0.5500    -2.1160 ca         1 LG2       0.342300
     13 N13          1.3830     0.1590    -3.1210 nb         1 LG2      -0.722000
     14 C14          0.6060     0.5280    -4.1680 ca         1 LG2       0.348900
     15 C15         -0.7600     0.2080    -4.2690 ca         1 LG2      -0.175600
     16 C16         -1.3470    -0.5380    -3.2250 ca         1 LG2      -0.064000
     17 C17         -0.5420    -0.9200    -2.1400 ca         1 LG2      -0.181000
     18 C18         -1.5490     0.6580    -5.4670 c          1 LG2       0.717600
     19 O19         -2.7330     0.3610    -5.5290 o          1 LG2      -0.717500
     20 O20         -0.9790     1.3020    -6.3350 o          1 LG2      -0.717500
     21 C21          3.1900    -1.2360    -1.1370 cx         1 LG2      -0.112400
     22 C22          2.2380    -2.3820    -0.9310 cx         1 LG2      -0.112400
     23 C23          0.7740     1.6710     5.0120 c3         1 LG2      -0.079600
     24 C24         -0.9730     2.9180     3.7030 c3         1 LG2      -0.079600
     25 C25         -2.4240    -1.6590     2.5880 c3         1 LG2      -0.080600
     26 C26         -0.4250    -2.9030     3.4630 c3         1 LG2      -0.080600
     27 C27          2.3910     1.8980    -0.2230 c3         1 LG2      -0.047800
     28 HC2          0.1340    -2.1100     0.8690 ha         1 LG2       0.114000
     29 HC5          1.2480     2.5990     2.1100 ha         1 LG2       0.102000
     30 HC81        -2.4790     0.7950     4.0790 hc         1 LG2       0.038200
     31 HC82        -1.7620     1.0170     5.6570 hc         1 LG2       0.038200
     32 HC91        -1.9990    -1.3810     5.2500 hc         1 LG2       0.035700
     33 HC92        -0.2940    -0.9970     5.2870 hc         1 LG2       0.035700
     34 HC41         1.1120     1.0990    -4.9460 h4         1 LG2       0.031100
     35 HC61        -2.3980    -0.8170    -3.2510 ha         1 LG2       0.131000
     36 HC71        -0.9670    -1.4980    -1.3260 ha         1 LG2       0.105000
     37 H211         3.6250    -1.1160    -2.1260 hc         1 LG2       0.072200
     38 H212         3.8580    -0.9890    -0.3160 hc         1 LG2       0.072200
     39 H221         2.2860    -2.9030     0.0220 hc         1 LG2       0.072200
     40 H222         2.0250    -3.0210    -1.7850 hc         1 LG2       0.072200
     41 H231         0.4320     2.1050     5.9600 hc         1 LG2       0.031867
     42 H232         1.2580     0.7140     5.2410 hc         1 LG2       0.031867
     43 H233         1.5500     2.3330     4.6110 hc         1 LG2       0.031867
     44 H241        -1.4670     3.3420     4.5860 hc         1 LG2       0.031867
     45 H242        -0.1970     3.6320     3.4070 hc         1 LG2       0.031867
     46 H243        -1.7160     2.8830     2.8970 hc         1 LG2       0.031867
     47 H251        -3.1130    -2.2420     3.2110 hc         1 LG2       0.033533
     48 H252        -2.9010    -0.6950     2.3770 hc         1 LG2       0.033533
     49 H253        -2.3260    -2.1830     1.6300 hc         1 LG2       0.033533
     50 H261        -1.0000    -3.4940     4.1860 hc         1 LG2       0.033533
     51 H262        -0.4090    -3.4760     2.5290 hc         1 LG2       0.033533
     52 H263         0.6060    -2.8450     3.8330 hc         1 LG2       0.033533
     53 H271         3.3650     1.4350    -0.4140 hc         1 LG2       0.045033
     54 H272         1.9090     2.0930    -1.1860 hc         1 LG2       0.045033
     55 H273         2.5890     2.8730     0.2380 hc         1 LG2       0.045033
@<TRIPOS>BOND
     1     1     2 ar  
     2     1     6 ar  
     3     1    10 1   
     4     2     3 ar  
     5     2    28 1   
     6     3     4 ar  
     7     3    11 1   
     8     4     5 ar  
     9     4    27 1   
    10     5     6 ar  
    11     5    29 1   
    12     6     7 1   
    13     7     8 1   
    14     7    23 1   
    15     7    24 1   
    16     8     9 1   
    17     8    30 1   
    18     8    31 1   
    19     9    10 1   
    20     9    32 1   
    21     9    33 1   
    22    10    25 1   
    23    10    26 1   
    24    11    12 1   
    25    11    21 1   
    26    11    22 1   
    27    12    13 ar  
    28    12    17 ar  
    29    13    14 ar  
    30    14    15 ar  
    31    14    34 1   
    32    15    16 ar  
    33    15    18 1   
    34    16    17 ar  
    35    16    35 1   
    36    17    36 1   
    37    18    19 1   
    38    18    20 1   
    39    21    22 1   
    40    21    37 1   
    41    21    38 1   
    42    22    39 1   
    43    22    40 1   
    44    23    41 1   
    45    23    42 1   
    46    23    43 1   
    47    24    44 1   
    48    24    45 1   
    49    24    46 1   
    50    25    47 1   
    51    25    48 1   
    52    25    49 1   
    53    26    50 1   
    54    26    51 1   
    55    26    52 1   
    56    27    53 1   
    57    27    54 1   
    58    27    55 1   
@<TRIPOS>SUBSTRUCTURE
     1 LG2         1 TEMP              0 ****  ****    0 ROOT
