@<TRIPOS>MOLECULE
LG3
   14    14     1     0     0
SMALL
abcg2


@<TRIPOS>ATOM
      1 C2          -1.0940    -0.2650    -0.0720 ca         1 LG3       0.408900
      2 N3           0.0390    -0.9670    -0.0340 nb         1 LG3      -0.336000
      3 C4           1.1800    -0.2830     0.0160 ca         1 LG3       0.424900
      4 C5           1.1830     1.1280     0.0260 ca         1 LG3      -0.353000
      5 C6          -0.0500     1.7280    -0.0110 ca         1 LG3       0.173900
      6 N1          -1.2050     1.0650    -0.0600 nb         1 LG3      -0.282000
      7 N7          -2.2420    -0.9750    -0.1670 nv         1 LG3      -1.058900
      8 N8           2.3210    -0.9860     0.0750 nv         1 LG3      -1.086900
      9 H5           2.0980     1.7020     0.0660 ha         1 LG3       0.128000
     10 H6          -0.1220     2.8110    -0.0020 h4         1 LG3       0.014100
     11 HN71        -3.1090    -0.5030     0.0220 hn         1 LG3       0.488500
     12 HN72        -2.2120    -1.9590     0.0360 hn         1 LG3       0.488500
     13 HN81         3.2140    -0.5300     0.0240 hn         1 LG3       0.495000
     14 HN82         2.2980    -1.9860    -0.0170 hn         1 LG3       0.495000
@<TRIPOS>BOND
     1     1     2 ar  
     2     1     6 ar  
     3     1     7 1   
     4     2     3 ar  
     5     3     4 ar  
     6     3     8 1   
     7     4     5 ar  
     8     4     9 1   
     9     5     6 ar  
    10     5    10 1   
    11     7    11 1   
    12     7    12 1   
    13     8    13 1   
    14     8    14 1   
@<TRIPOS>SUBSTRUCTURE
     1 LG3         1 TEMP              0 ****  ****    0 ROOT
