@<TRIPOS>MOLECULE
LG3
   14    14     1     0     0
SMALL
No Charge or Current Charge


@<TRIPOS>ATOM
      1 C2          -1.0810    -0.2730    -0.0900 ca         1 LG3       0.408900
      2 N3           0.0450    -0.9920    -0.0130 nb         1 LG3      -0.336000
      3 C4           1.1730    -0.2800     0.0620 ca         1 LG3       0.424900
      4 C5           1.1860     1.1130     0.0590 ca         1 LG3      -0.353000
      5 C6          -0.0560     1.7620    -0.0240 ca         1 LG3       0.173900
      6 N1          -1.2050     1.0620    -0.1000 nb         1 LG3      -0.282000
      7 N7          -2.2300    -0.9810    -0.1630 nv         1 LG3      -1.058900
      8 N8           2.3180    -0.9920     0.1380 nv         1 LG3      -1.086900
      9 H5           2.1110     1.6770     0.1210 ha         1 LG3       0.128000
     10 H6          -0.1340     2.8490    -0.0310 h4         1 LG3       0.014100
     11 HN71        -3.1060    -0.4940     0.0080 hn         1 LG3       0.488500
     12 HN72        -2.2020    -1.9710     0.0690 hn         1 LG3       0.488500
     13 HN81         3.1970    -0.5160    -0.0520 hn         1 LG3       0.495000
     14 HN82         2.2820    -1.9840    -0.0820 hn         1 LG3       0.495000
@<TRIPOS>BOND
     1     1     2 ar  
     2     1     6 ar  
     3     1     7 1   
     4     2     3 ar  
     5     3     4 ar  
     6     3     8 1   
     7     4     5 ar  
     8     4     9 1   
     9     5     6 ar  
    10     5    10 1   
    11     7    11 1   
    12     7    12 1   
    13     8    13 1   
    14     8    14 1   
@<TRIPOS>SUBSTRUCTURE
     1 LG3         1 TEMP              0 ****  ****    0 ROOT
