@<TRIPOS>MOLECULE
LG4
   16    16     1     0     0
SMALL
No Charge or Current Charge


@<TRIPOS>ATOM
      1 N1          -0.7640    -1.1390    -0.0460 nb         1 LG4      -0.739000
      2 C2           0.5900    -1.1440    -0.0200 ca         1 LG4       0.381900
      3 C3           1.3690     0.0340     0.0010 ca         1 LG4      -0.181300
      4 C4           0.7110     1.2770    -0.0010 ca         1 LG4      -0.039000
      5 C5          -0.6920     1.2760    -0.0270 ca         1 LG4      -0.223000
      6 C6          -1.3560     0.0470    -0.0520 ca         1 LG4       0.583900
      7 N7          -2.6860    -0.0740    -0.0710 nv         1 LG4      -1.047900
      8 C8           2.8890    -0.0370     0.0330 c3         1 LG4      -0.030800
      9 H2           1.0660    -2.1250    -0.0160 h4         1 LG4       0.014100
     10 H4           1.2680     2.2110     0.0190 ha         1 LG4       0.113000
     11 H5          -1.2490     2.2080    -0.0310 ha         1 LG4       0.120000
     12 HN71        -3.2330     0.7190     0.2480 hn         1 LG4       0.465000
     13 HN72        -3.0460    -0.9950     0.1470 hn         1 LG4       0.465000
     14 H81          3.2650     0.0890     1.0550 hc         1 LG4       0.039700
     15 H82          3.2550    -1.0010    -0.3420 hc         1 LG4       0.039700
     16 H83          3.3360     0.7490    -0.5880 hc         1 LG4       0.039700
@<TRIPOS>BOND
     1     1     2 ar  
     2     1     6 ar  
     3     2     3 ar  
     4     2     9 1   
     5     3     4 ar  
     6     3     8 1   
     7     4     5 ar  
     8     4    10 1   
     9     5     6 ar  
    10     5    11 1   
    11     6     7 1   
    12     7    12 1   
    13     7    13 1   
    14     8    14 1   
    15     8    15 1   
    16     8    16 1   
@<TRIPOS>SUBSTRUCTURE
     1 LG4         1 TEMP              0 ****  ****    0 ROOT
