@<TRIPOS>MOLECULE
LG4
   16    16     1     0     0
SMALL
abcg2


@<TRIPOS>ATOM
      1 N1          -0.7070    -1.1480    -0.0840 nb         1 LG4      -0.739000
      2 C2           0.6240    -1.1260    -0.0640 ca         1 LG4       0.381900
      3 C3           1.3970     0.0210     0.0000 ca         1 LG4      -0.181300
      4 C4           0.6910     1.2280     0.0460 ca         1 LG4      -0.039000
      5 C5          -0.6850     1.2350     0.0230 ca         1 LG4      -0.223000
      6 C6          -1.3630     0.0050    -0.0430 ca         1 LG4       0.583900
      7 N7          -2.7290    -0.0430    -0.1170 nv         1 LG4      -1.047900
      8 C8           2.8950    -0.0270     0.0270 c3         1 LG4      -0.030800
      9 H2           1.1090    -2.0980    -0.1020 h4         1 LG4       0.014100
     10 H4           1.2280     2.1680     0.1020 ha         1 LG4       0.113000
     11 H5          -1.2380     2.1650     0.0580 ha         1 LG4       0.120000
     12 HN71        -3.2340     0.7550     0.2330 hn         1 LG4       0.465000
     13 HN72        -3.1490    -0.9240     0.1310 hn         1 LG4       0.465000
     14 H81          3.2940     0.3480     0.9710 hc         1 LG4       0.039700
     15 H82          3.2590    -1.0460    -0.1020 hc         1 LG4       0.039700
     16 H83          3.3290     0.5810    -0.7690 hc         1 LG4       0.039700
@<TRIPOS>BOND
     1     1     2 ar  
     2     1     6 ar  
     3     2     3 ar  
     4     2     9 1   
     5     3     4 ar  
     6     3     8 1   
     7     4     5 ar  
     8     4    10 1   
     9     5     6 ar  
    10     5    11 1   
    11     6     7 1   
    12     7    12 1   
    13     7    13 1   
    14     8    14 1   
    15     8    15 1   
    16     8    16 1   
@<TRIPOS>SUBSTRUCTURE
     1 LG4         1 TEMP              0 ****  ****    0 ROOT
