@<TRIPOS>MOLECULE
LG5
   18    18     1     0     0
SMALL
No Charge or Current Charge


@<TRIPOS>ATOM
      1 C1          -0.0680     1.7970    -0.0940 c2         1 LG5      -0.256200
      2 C2           1.2550     1.0600    -0.2950 c6         1 LG5       0.208000
      3 N3           1.1590    -0.3900     0.0530 nh         1 LG5      -0.611400
      4 C4          -0.0930    -1.0130     0.1210 c2         1 LG5      -0.106000
      5 C5          -1.2550    -0.3230     0.1390 ce         1 LG5       0.039000
      6 C6          -1.2330     1.1390     0.0980 ce         1 LG5      -0.175000
      7 C7           2.4230    -1.1520     0.1300 c3         1 LG5       0.168100
      8 N8          -2.5110    -0.8990     0.2200 nv         1 LG5      -0.896000
      9 H1          -0.0280     2.8860    -0.1290 ha         1 LG5       0.184000
     10 H21          2.0430     1.5450     0.3010 h1         1 LG5       0.058200
     11 H22          1.5470     1.1610    -1.3510 h1         1 LG5       0.058200
     12 H4          -0.0770    -2.1040     0.1720 h4         1 LG5       0.194000
     13 H6          -2.1730     1.6800     0.2230 ha         1 LG5       0.187000
     14 H71          2.4800    -1.6990     1.0810 h1         1 LG5       0.033367
     15 H72          2.4810    -1.8770    -0.6920 h1         1 LG5       0.033367
     16 H73          3.2920    -0.4840     0.0640 h1         1 LG5       0.033367
     17 HN81        -3.3490    -0.3260     0.1380 hn         1 LG5       0.424000
     18 HN82        -2.6190    -1.9110     0.1740 hn         1 LG5       0.424000
@<TRIPOS>BOND
     1     1     2 1   
     2     1     6 2   
     3     1     9 1   
     4     2     3 1   
     5     2    10 1   
     6     2    11 1   
     7     3     4 1   
     8     3     7 1   
     9     4     5 2   
    10     4    12 1   
    11     5     6 1   
    12     5     8 1   
    13     6    13 1   
    14     7    14 1   
    15     7    15 1   
    16     7    16 1   
    17     8    17 1   
    18     8    18 1   
@<TRIPOS>SUBSTRUCTURE
     1 LG5         1 TEMP              0 ****  ****    0 ROOT
