@<TRIPOS>MOLECULE
LG5
   18    18     1     0     0
SMALL
abcg2


@<TRIPOS>ATOM
      1 C1           0.1770     1.6420     0.2230 c2         1 LG5      -0.256200
      2 C2           1.1350     0.9920    -0.7330 c6         1 LG5       0.208000
      3 N3           1.2070    -0.4460    -0.5430 nh         1 LG5      -0.611400
      4 C4          -0.0610    -1.0520    -0.4400 c2         1 LG5      -0.106000
      5 C5          -1.1310    -0.3880     0.0430 ce         1 LG5       0.039000
      6 C6          -0.9260     0.9660     0.5530 ce         1 LG5      -0.175000
      7 C7           2.1470    -0.9000     0.4670 c3         1 LG5       0.168100
      8 N8          -2.4010    -0.9460     0.2050 nv         1 LG5      -0.896000
      9 H1           0.3850     2.6240     0.6300 ha         1 LG5       0.184000
     10 H21          2.1380     1.4090    -0.6360 h1         1 LG5       0.058200
     11 H22          0.8100     1.1920    -1.7640 h1         1 LG5       0.058200
     12 H4          -0.1130    -2.1060    -0.7020 h4         1 LG5       0.194000
     13 H6          -1.6670     1.3800     1.2280 ha         1 LG5       0.187000
     14 H71          1.8690    -0.6180     1.4900 h1         1 LG5       0.033367
     15 H72          2.2130    -1.9880     0.4300 h1         1 LG5       0.033367
     16 H73          3.1410    -0.5010     0.2580 h1         1 LG5       0.033367
     17 HN81        -3.1440    -0.3340    -0.1020 hn         1 LG5       0.424000
     18 HN82        -2.5030    -1.8380    -0.2570 hn         1 LG5       0.424000
@<TRIPOS>BOND
     1     1     2 1   
     2     1     6 2   
     3     1     9 1   
     4     2     3 1   
     5     2    10 1   
     6     2    11 1   
     7     3     4 1   
     8     3     7 1   
     9     4     5 2   
    10     4    12 1   
    11     5     6 1   
    12     5     8 1   
    13     6    13 1   
    14     7    14 1   
    15     7    15 1   
    16     7    16 1   
    17     8    17 1   
    18     8    18 1   
@<TRIPOS>SUBSTRUCTURE
     1 LG5         1 TEMP              0 ****  ****    0 ROOT
