@<TRIPOS>MOLECULE
LG7
   36    39     1     0     0
SMALL
No Charge or Current Charge


@<TRIPOS>ATOM
      1 C13          5.6270     2.7610     3.2790 ca         1 LG7      -0.103000
      2 C18          3.4470     6.8710     5.3460 ca         1 LG7      -0.093000
      3 C17          4.7450     6.3380     5.3790 ca         1 LG7      -0.103000
      4 C16          5.0580     5.1450     4.6790 ca         1 LG7      -0.003000
      5 C15          6.3640     4.5860     4.7160 ca         1 LG7      -0.002000
      6 C19          2.4410     6.2210     4.6210 ca         1 LG7      -0.106000
      7 C20          2.7320     5.0420     3.9200 ca         1 LG7      -0.082000
      8 C21          4.0370     4.4970     3.9300 ca         1 LG7      -0.028000
      9 C22          7.4420     5.1910     5.4550 cg         1 LG7       0.326000
     10 C12          4.3340     3.3050     3.2190 ca         1 LG7       0.004000
     11 O1           0.0320     3.2380     1.8740 oh         1 LG7      -0.661000
     12 C2           0.3720     2.3960     0.7700 c5         1 LG7       0.163300
     13 C3          -0.2270     0.9680     0.9410 c5         1 LG7      -0.142400
     14 C4           0.6740     0.3390     2.0470 c5         1 LG7       0.101000
     15 N5           1.9660     0.9880     1.7600 n          1 LG7      -0.374800
     16 C6           1.8810     2.0260     0.7250 c5         1 LG7      -0.015300
     17 C7           2.8290     3.1410     1.2310 c          1 LG7       0.589000
     18 O8           3.1360     4.2050     0.7060 o          1 LG7      -0.477000
     19 N9           3.3550     2.6210     2.4230 n          1 LG7      -0.230000
     20 C10          2.8270     1.3830     2.7730 c          1 LG7       0.612000
     21 O11          3.0360     0.7700     3.8100 o          1 LG7      -0.512000
     22 C14          6.6330     3.3950     4.0180 ca         1 LG7      -0.058000
     23 N23          8.3240     5.6740     6.0500 n1         1 LG7      -0.454000
     24 H13          5.8570     1.8440     2.7400 ha         1 LG7       0.130000
     25 H18          3.2210     7.7860     5.8900 ha         1 LG7       0.117000
     26 H17          5.4960     6.8680     5.9600 ha         1 LG7       0.125000
     27 H19          1.4330     6.6300     4.6030 ha         1 LG7       0.116000
     28 H20          1.9250     4.5580     3.3770 ha         1 LG7       0.131000
     29 HO1         -0.9410     3.3770     1.8390 ho         1 LG7       0.457000
     30 H2           0.0500     2.8610    -0.1740 h1         1 LG7       0.067700
     31 H31         -0.1470     0.4000     0.0070 hc         1 LG7       0.064700
     32 H32         -1.2870     0.9750     1.2200 hc         1 LG7       0.064700
     33 H41          0.3170     0.5990     3.0530 h1         1 LG7       0.068700
     34 H42          0.7310    -0.7550     1.9690 h1         1 LG7       0.068700
     35 H6           2.2170     1.6630    -0.2540 h1         1 LG7       0.109700
     36 H14          7.6300     2.9570     4.0450 ha         1 LG7       0.130000
@<TRIPOS>BOND
     1     1    10 ar  
     2     1    22 ar  
     3     1    24 1   
     4     2     3 ar  
     5     2     6 ar  
     6     2    25 1   
     7     3     4 ar  
     8     3    26 1   
     9     4     5 ar  
    10     4     8 ar  
    11     5     9 1   
    12     5    22 ar  
    13     6     7 ar  
    14     6    27 1   
    15     7     8 ar  
    16     7    28 1   
    17     8    10 ar  
    18     9    23 3   
    19    10    19 1   
    20    11    12 1   
    21    11    29 1   
    22    12    13 1   
    23    12    16 1   
    24    12    30 1   
    25    13    14 1   
    26    13    31 1   
    27    13    32 1   
    28    14    15 1   
    29    14    33 1   
    30    14    34 1   
    31    15    16 1   
    32    15    20 1   
    33    16    17 1   
    34    16    35 1   
    35    17    18 2   
    36    17    19 1   
    37    19    20 1   
    38    20    21 2   
    39    22    36 1   
@<TRIPOS>SUBSTRUCTURE
     1 LG7         1 TEMP              0 ****  ****    0 ROOT
