@<TRIPOS>MOLECULE
LG7
   36    39     1     0     0
SMALL
bcc


@<TRIPOS>ATOM
      1 C13          5.6340     2.8060     3.1900 ca         1 LG7      -0.121000
      2 C18          3.3990     6.7560     5.3960 ca         1 LG7      -0.111000
      3 C17          4.6820     6.2830     5.3950 ca         1 LG7      -0.121000
      4 C16          5.0170     5.1240     4.6620 ca         1 LG7      -0.003000
      5 C15          6.3360     4.5880     4.6400 ca         1 LG7      -0.002000
      6 C19          2.3930     6.0900     4.6710 ca         1 LG7      -0.124000
      7 C20          2.6870     4.9660     3.9500 ca         1 LG7      -0.100000
      8 C21          4.0060     4.4570     3.9230 ca         1 LG7      -0.028000
      9 C22          7.3750     5.2350     5.3720 cg         1 LG7       0.236800
     10 C12          4.3580     3.2960     3.1880 ca         1 LG7       0.096600
     11 O1           0.2820     3.3170     1.7860 oh         1 LG7      -0.598800
     12 C2           0.4610     2.4020     0.7320 c5         1 LG7       0.140100
     13 C3          -0.2290     1.0630     1.0000 c5         1 LG7      -0.142400
     14 C4           0.6490     0.3800     2.0590 c5         1 LG7       0.101000
     15 N5           1.9540     1.0130     1.8630 n          1 LG7      -0.441800
     16 C6           1.9230     1.9720     0.7740 c5         1 LG7      -0.015300
     17 C7           2.9280     3.0170     1.1930 c          1 LG7       0.731500
     18 O8           3.3000     3.9830     0.5810 o          1 LG7      -0.552500
     19 N9           3.3720     2.6230     2.4330 n          1 LG7      -0.456600
     20 C10          2.7100     1.4700     2.8890 c          1 LG7       0.821500
     21 O11          2.8210     1.0150     4.0010 o          1 LG7      -0.587500
     22 C14          6.6360     3.4550     3.9250 ca         1 LG7      -0.075000
     23 N23          8.2160     5.7550     5.9640 n1         1 LG7      -0.364800
     24 H13          5.8780     1.9190     2.6210 ha         1 LG7       0.148000
     25 H18          3.1540     7.6460     5.9600 ha         1 LG7       0.135000
     26 H17          5.4440     6.8010     5.9630 ha         1 LG7       0.143000
     27 H19          1.3800     6.4700     4.6860 ha         1 LG7       0.134000
     28 H20          1.9030     4.4630     3.4010 ha         1 LG7       0.149000
     29 HO1         -0.6490     3.5540     1.8420 ho         1 LG7       0.418000
     30 H2           0.1850     2.8250    -0.2380 h1         1 LG7       0.067700
     31 H31         -0.2420     0.4770     0.0790 hc         1 LG7       0.064700
     32 H32         -1.2630     1.1820     1.3250 hc         1 LG7       0.064700
     33 H41          0.2920     0.5640     3.0720 h1         1 LG7       0.068700
     34 H42          0.7060    -0.6970     1.9090 h1         1 LG7       0.068700
     35 H6           2.2240     1.5300    -0.1800 h1         1 LG7       0.109700
     36 H14          7.6430     3.0620     3.9190 ha         1 LG7       0.148000
@<TRIPOS>BOND
     1     1    10 ar  
     2     1    22 ar  
     3     1    24 1   
     4     2     3 ar  
     5     2     6 ar  
     6     2    25 1   
     7     3     4 ar  
     8     3    26 1   
     9     4     5 ar  
    10     4     8 ar  
    11     5     9 1   
    12     5    22 ar  
    13     6     7 ar  
    14     6    27 1   
    15     7     8 ar  
    16     7    28 1   
    17     8    10 ar  
    18     9    23 3   
    19    10    19 1   
    20    11    12 1   
    21    11    29 1   
    22    12    13 1   
    23    12    16 1   
    24    12    30 1   
    25    13    14 1   
    26    13    31 1   
    27    13    32 1   
    28    14    15 1   
    29    14    33 1   
    30    14    34 1   
    31    15    16 1   
    32    15    20 1   
    33    16    17 1   
    34    16    35 1   
    35    17    18 2   
    36    17    19 1   
    37    19    20 1   
    38    20    21 2   
    39    22    36 1   
@<TRIPOS>SUBSTRUCTURE
     1 LG7         1 TEMP              0 ****  ****    0 ROOT
