@<TRIPOS>MOLECULE
LG9
   32    33     1     0     0
SMALL
No Charge or Current Charge


@<TRIPOS>ATOM
      1 O4           3.7970    -0.9170    -0.8230 oh         1 LG9      -0.647000
      2 C9           2.7560    -1.1000     0.1450 c3         1 LG9       0.174600
      3 C1           1.5880    -0.1080    -0.0860 c5         1 LG9      -0.076700
      4 C5           0.3500    -0.4130     0.8120 c5         1 LG9       0.178500
      5 C4          -0.4790    -1.5930     0.1710 c5         1 LG9       0.117300
      6 O1          -0.4430    -2.8110     0.9270 oh         1 LG9      -0.650000
      7 C6          -1.9110    -0.9700     0.1120 c5         1 LG9       0.126300
      8 O2          -2.7790    -1.6880    -0.7830 oh         1 LG9      -0.657000
      9 C7          -1.5300     0.4730    -0.3530 c5         1 LG9       0.194500
     10 C8          -2.7270     1.4720    -0.4810 c3         1 LG9       0.175600
     11 O3          -3.5340     1.5260     0.7120 oh         1 LG9      -0.647000
     12 N4          -0.5090     0.8000     0.6980 n3         1 LG9      -0.725600
     13 C3           0.3700     1.9230     0.2370 c5         1 LG9       0.131800
     14 C2           1.8260     1.3620     0.3670 c5         1 LG9       0.169300
     15 OXT          2.7530     2.0650    -0.4680 oh         1 LG9      -0.634000
     16 H4           4.5120    -1.5520    -0.5980 ho         1 LG9       0.439000
     17 H91C         2.3680    -2.1250     0.0730 h1         1 LG9       0.023200
     18 H92C         3.1480    -0.9660     1.1620 h1         1 LG9       0.023200
     19 H1           1.3340    -0.1450    -1.1520 hc         1 LG9       0.075700
     20 H5           0.6310    -0.6110     1.8570 h1         1 LG9       0.085700
     21 H2           2.1580     1.3920     1.4150 h1         1 LG9       0.044700
     22 HA          -0.1380    -1.7950    -0.8550 h1         1 LG9       0.045700
     23 HB          -1.1690    -3.3720     0.5710 ho         1 LG9       0.447000
     24 H6          -2.3510    -0.9340     1.1200 h1         1 LG9       0.075700
     25 HC          -3.6820    -1.3190    -0.6600 ho         1 LG9       0.448000
     26 H7          -1.0620     0.4180    -1.3470 h1         1 LG9       0.044700
     27 H81C        -2.3290     2.4680    -0.7130 h1         1 LG9       0.023700
     28 H82C        -3.3460     1.1630    -1.3330 h1         1 LG9       0.023700
     29 H3          -4.1580     2.2750     0.6010 ho         1 LG9       0.438000
     30 H31C         0.1650     2.2130    -0.8040 h1         1 LG9       0.043700
     31 H32C         0.2300     2.8180     0.8580 h1         1 LG9       0.043700
     32 HXT          2.8830     2.9520    -0.0670 ho         1 LG9       0.441000
@<TRIPOS>BOND
     1     1     2 1   
     2     1    16 1   
     3     2     3 1   
     4     2    17 1   
     5     2    18 1   
     6     3     4 1   
     7     3    14 1   
     8     3    19 1   
     9     4     5 1   
    10     4    12 1   
    11     4    20 1   
    12     5     6 1   
    13     5     7 1   
    14     5    22 1   
    15     6    23 1   
    16     7     8 1   
    17     7     9 1   
    18     7    24 1   
    19     8    25 1   
    20     9    10 1   
    21     9    12 1   
    22     9    26 1   
    23    10    11 1   
    24    10    27 1   
    25    10    28 1   
    26    11    29 1   
    27    12    13 1   
    28    13    14 1   
    29    13    30 1   
    30    13    31 1   
    31    14    15 1   
    32    14    21 1   
    33    15    32 1   
@<TRIPOS>SUBSTRUCTURE
     1 LG9         1 TEMP              0 ****  ****    0 ROOT
