@<TRIPOS>MOLECULE
LG9
   32    33     1     0     0
SMALL
abcg2


@<TRIPOS>ATOM
      1 O4           3.9680    -0.9090     0.1150 oh         1 LG9      -0.647000
      2 C9           2.6900    -1.0520     0.6890 c3         1 LG9       0.174600
      3 C1           1.6840    -0.2000    -0.0580 c5         1 LG9      -0.076700
      4 C5           0.2660    -0.4080     0.4760 c5         1 LG9       0.178500
      5 C4          -0.6010    -1.4550    -0.2130 c5         1 LG9       0.117300
      6 O1          -0.4480    -2.7110     0.3980 oh         1 LG9      -0.650000
      7 C6          -1.9930    -0.8360    -0.0970 c5         1 LG9       0.126300
      8 O2          -2.9480    -1.3370    -0.9970 oh         1 LG9      -0.657000
      9 C7          -1.7080     0.6340    -0.3910 c5         1 LG9       0.194500
     10 C8          -2.7960     1.5990     0.0300 c3         1 LG9       0.175600
     11 O3          -3.0430     1.4780     1.4100 oh         1 LG9      -0.647000
     12 N4          -0.4400     0.8670     0.2770 n3         1 LG9      -0.725600
     13 C3           0.4610     1.8210    -0.3320 c5         1 LG9       0.131800
     14 C2           1.8490     1.3140     0.0650 c5         1 LG9       0.169300
     15 OXT          2.8840     1.7980    -0.7500 oh         1 LG9      -0.634000
     16 H4           4.5600    -1.5220     0.5600 ho         1 LG9       0.439000
     17 H91C         2.3540    -2.0970     0.6560 h1         1 LG9       0.023200
     18 H92C         2.6840    -0.7540     1.7480 h1         1 LG9       0.023200
     19 H1           1.7110    -0.4610    -1.1250 hc         1 LG9       0.075700
     20 H5           0.3100    -0.6490     1.5480 h1         1 LG9       0.085700
     21 H2           2.0300     1.5620     1.1220 h1         1 LG9       0.044700
     22 HA          -0.3380    -1.5030    -1.2810 h1         1 LG9       0.045700
     23 HB          -0.8300    -3.3800    -0.1770 ho         1 LG9       0.447000
     24 H6          -2.3330    -0.9450     0.9430 h1         1 LG9       0.075700
     25 HC          -3.3170    -2.1490    -0.6370 ho         1 LG9       0.448000
     26 H7          -1.6030     0.7470    -1.4860 h1         1 LG9       0.044700
     27 H81C        -2.4810     2.6190    -0.2340 h1         1 LG9       0.023700
     28 H82C        -3.6920     1.3850    -0.5670 h1         1 LG9       0.023700
     29 H3          -3.7930     2.0370     1.6270 ho         1 LG9       0.438000
     30 H31C         0.3840     1.8250    -1.4310 h1         1 LG9       0.043700
     31 H32C         0.2750     2.8430     0.0120 h1         1 LG9       0.043700
     32 HXT          2.9760     2.7420    -0.5870 ho         1 LG9       0.441000
@<TRIPOS>BOND
     1     1     2 1   
     2     1    16 1   
     3     2     3 1   
     4     2    17 1   
     5     2    18 1   
     6     3     4 1   
     7     3    14 1   
     8     3    19 1   
     9     4     5 1   
    10     4    12 1   
    11     4    20 1   
    12     5     6 1   
    13     5     7 1   
    14     5    22 1   
    15     6    23 1   
    16     7     8 1   
    17     7     9 1   
    18     7    24 1   
    19     8    25 1   
    20     9    10 1   
    21     9    12 1   
    22     9    26 1   
    23    10    11 1   
    24    10    27 1   
    25    10    28 1   
    26    11    29 1   
    27    12    13 1   
    28    13    14 1   
    29    13    30 1   
    30    13    31 1   
    31    14    15 1   
    32    14    21 1   
    33    15    32 1   
@<TRIPOS>SUBSTRUCTURE
     1 LG9         1 TEMP              0 ****  ****    0 ROOT
