@<TRIPOS>MOLECULE
LGA
   12    12     1     0     0
SMALL
No Charge or Current Charge


@<TRIPOS>ATOM
      1 N2          61.8280    33.5420    26.1950 nv         1 LGA      -1.064900
      2 C1          62.8520    33.9270    25.3940 ca         1 LGA       0.375900
      3 N1          64.0890    33.7050    25.8660 nb         1 LGA      -0.247500
      4 C4          65.1060    34.0900    25.0700 ca         1 LGA       0.152900
      5 C5          64.8680    34.6880    23.8200 ca         1 LGA      -0.289000
      6 C3          63.5310    34.8710    23.4290 ca         1 LGA       0.152900
      7 N7          62.5110    34.4870    24.2230 nb         1 LGA      -0.247500
      8 H2N1        62.0290    33.3220    27.1690 hn         1 LGA       0.497000
      9 H2N2        60.8910    33.8830    25.9890 hn         1 LGA       0.497000
     10 H4          66.1170    33.9180    25.4370 h4         1 LGA       0.019100
     11 H5          65.6890    34.9980    23.1790 ha         1 LGA       0.134000
     12 H3          63.2720    35.3270    22.4750 h4         1 LGA       0.019100
@<TRIPOS>BOND
     1     1     2 1   
     2     1     8 1   
     3     1     9 1   
     4     2     3 ar  
     5     2     7 ar  
     6     3     4 ar  
     7     4     5 ar  
     8     4    10 1   
     9     5     6 ar  
    10     5    11 1   
    11     6     7 ar  
    12     6    12 1   
@<TRIPOS>SUBSTRUCTURE
     1 LGA         1 TEMP              0 ****  ****    0 ROOT
