@<TRIPOS>MOLECULE
LGA
   12    12     1     0     0
SMALL
abcg2


@<TRIPOS>ATOM
      1 N2          61.8330    33.5570    26.1970 nv         1 LGA      -1.064900
      2 C1          62.8500    33.9560    25.4100 ca         1 LGA       0.375900
      3 N1          64.0930    33.7390    25.8580 nb         1 LGA      -0.247500
      4 C4          65.0800    34.1020    25.0560 ca         1 LGA       0.152900
      5 C5          64.8710    34.6780    23.8130 ca         1 LGA      -0.289000
      6 C3          63.5440    34.8620    23.4570 ca         1 LGA       0.152900
      7 N7          62.5330    34.5120    24.2340 nb         1 LGA      -0.247500
      8 H2N1        62.0250    33.2920    27.1480 hn         1 LGA       0.497000
      9 H2N2        60.8980    33.8540    25.9780 hn         1 LGA       0.497000
     10 H4          66.0860    33.9260    25.4220 h4         1 LGA       0.019100
     11 H5          65.6860    34.9680    23.1680 ha         1 LGA       0.134000
     12 H3          63.2840    35.3120    22.5050 h4         1 LGA       0.019100
@<TRIPOS>BOND
     1     1     2 1   
     2     1     8 1   
     3     1     9 1   
     4     2     3 ar  
     5     2     7 ar  
     6     3     4 ar  
     7     4     5 ar  
     8     4    10 1   
     9     5     6 ar  
    10     5    11 1   
    11     6     7 ar  
    12     6    12 1   
@<TRIPOS>SUBSTRUCTURE
     1 LGA         1 TEMP              0 ****  ****    0 ROOT
