@<TRIPOS>MOLECULE
LGB
   37    39     1     0     0
SMALL
No Charge or Current Charge


@<TRIPOS>ATOM
      1 C1           2.9450    -2.4850    -0.0370 c5         1 LGB       0.213800
      2 N2           2.3990    -1.2800     0.6490 nh         1 LGB      -0.723600
      3 C3           3.2900    -0.1210     0.4830 c5         1 LGB       0.169500
      4 C4           4.1040    -0.5250    -0.7860 c5         1 LGB       0.148300
      5 C5           4.3720    -2.0080    -0.4290 c5         1 LGB      -0.145400
      6 C6           1.1400    -0.9330     0.2230 c2         1 LGB       0.824500
      7 O7           1.0830     0.3220    -0.3100 os         1 LGB      -0.440600
      8 C8           2.2920     1.0160     0.1120 c5         1 LGB       0.089300
      9 N9           0.1480    -1.7560     0.2760 ne         1 LGB      -0.674100
     10 C10         -1.1240    -1.3890    -0.1970 ca         1 LGB       0.214400
     11 C11         -1.9880    -0.5310     0.5350 ca         1 LGB      -0.065300
     12 C12         -3.2410    -0.1800    -0.0270 ca         1 LGB       0.156000
     13 C13         -3.6340    -0.6930    -1.2830 ca         1 LGB      -0.027000
     14 C14         -2.7740    -1.5570    -1.9830 ca         1 LGB      -0.055000
     15 C15         -1.5280    -1.8990    -1.4400 ca         1 LGB      -0.143000
     16 C16         -1.5900     0.0240     1.9100 c3         1 LGB      -0.047800
     17 Cl17        -4.3230     0.9210     0.8500 cl         1 LGB      -0.178000
     18 O18          5.3140     0.2180    -0.9310 oh         1 LGB      -0.641000
     19 C19         -4.9020    -0.3480    -1.8640 cg         1 LGB       0.331000
     20 N20         -5.9300    -0.0760    -2.3470 n1         1 LGB      -0.446000
     21 C21          1.9720     1.9750     1.2950 c3         1 LGB       0.299000
     22 F22          3.0700     2.6660     1.6750 f          1 LGB      -0.101333
     23 F23          1.0280     2.8820     0.9530 f          1 LGB      -0.101333
     24 F24          1.5170     1.3140     2.3850 f          1 LGB      -0.101333
     25 H1           2.9630    -3.3680     0.6170 h1         1 LGB       0.076200
     26 H1A          2.3720    -2.7450    -0.9390 h1         1 LGB       0.076200
     27 H3           3.9270     0.0860     1.3560 h1         1 LGB       0.120700
     28 H4           3.4940    -0.4530    -1.6980 h1         1 LGB       0.041700
     29 H5           5.0690    -2.1050     0.4130 hc         1 LGB       0.068700
     30 H5A          4.7830    -2.5820    -1.2660 hc         1 LGB       0.068700
     31 H8           2.6670     1.6320    -0.7160 h1         1 LGB       0.118700
     32 H14         -3.0670    -1.9600    -2.9520 ha         1 LGB       0.128000
     33 H15         -0.8660    -2.5610    -1.9920 ha         1 LGB       0.119000
     34 H16         -1.3400     1.0900     1.8420 hc         1 LGB       0.056033
     35 H16A        -2.4050    -0.0830     2.6350 hc         1 LGB       0.056033
     36 H16B        -0.7270    -0.4890     2.3480 hc         1 LGB       0.056033
     37 HO18         5.8000    -0.1710    -1.6930 ho         1 LGB       0.459000
@<TRIPOS>BOND
     1     1     2 1   
     2     1     5 1   
     3     1    25 1   
     4     1    26 1   
     5     2     3 1   
     6     2     6 1   
     7     3     4 1   
     8     3     8 1   
     9     3    27 1   
    10     4     5 1   
    11     4    18 1   
    12     4    28 1   
    13     5    29 1   
    14     5    30 1   
    15     6     7 1   
    16     6     9 2   
    17     7     8 1   
    18     8    21 1   
    19     8    31 1   
    20     9    10 1   
    21    10    11 ar  
    22    10    15 ar  
    23    11    12 ar  
    24    11    16 1   
    25    12    13 ar  
    26    12    17 1   
    27    13    14 ar  
    28    13    19 1   
    29    14    15 ar  
    30    14    32 1   
    31    15    33 1   
    32    16    34 1   
    33    16    35 1   
    34    16    36 1   
    35    18    37 1   
    36    19    20 3   
    37    21    22 1   
    38    21    23 1   
    39    21    24 1   
@<TRIPOS>SUBSTRUCTURE
     1 LGB         1 TEMP              0 ****  ****    0 ROOT
