@<TRIPOS>MOLECULE
LGB
   37    39     1     0     0
SMALL
abcg2


@<TRIPOS>ATOM
      1 C1           2.8880    -2.2720     0.7340 c5         1 LGB       0.213800
      2 N2           2.3950    -0.8900     0.7620 nh         1 LGB      -0.723600
      3 C3           3.3640     0.0090     0.1690 c5         1 LGB       0.169500
      4 C4           4.0340    -0.8660    -0.8870 c5         1 LGB       0.148300
      5 C5           4.1560    -2.1950    -0.1320 c5         1 LGB      -0.145400
      6 C6           1.1530    -0.5770     0.3190 c2         1 LGB       0.824500
      7 O7           1.1620     0.6170    -0.3080 os         1 LGB      -0.440600
      8 C8           2.4780     1.1510    -0.3200 c5         1 LGB       0.089300
      9 N9           0.1210    -1.2930     0.4790 ne         1 LGB      -0.674100
     10 C10         -1.0940    -0.9890    -0.1050 ca         1 LGB       0.214400
     11 C11         -2.2390    -0.9170     0.7150 ca         1 LGB      -0.065300
     12 C12         -3.4590    -0.6800     0.0980 ca         1 LGB       0.156000
     13 C13         -3.5820    -0.5260    -1.2850 ca         1 LGB      -0.027000
     14 C14         -2.4390    -0.6160    -2.0780 ca         1 LGB      -0.055000
     15 C15         -1.2140    -0.8430    -1.4920 ca         1 LGB      -0.143000
     16 C16         -2.1410    -1.0800     2.2000 c3         1 LGB      -0.047800
     17 CL17        -4.8860    -0.5580     1.0620 cl         1 LGB      -0.178000
     18 O18          5.2350    -0.2850    -1.2980 oh         1 LGB      -0.641000
     19 C19         -4.8470    -0.2900    -1.8870 cg         1 LGB       0.331000
     20 N20         -5.8610    -0.1010    -2.4030 n1         1 LGB      -0.446000
     21 C21          2.4930     2.3600     0.6020 c3         1 LGB       0.299000
     22 F22          3.7110     2.9060     0.6280 f          1 LGB      -0.101333
     23 F23          1.6330     3.2940     0.1950 f          1 LGB      -0.101333
     24 F24          2.1630     2.0320     1.8540 f          1 LGB      -0.101333
     25 H1           3.1020    -2.6290     1.7400 h1         1 LGB       0.076200
     26 H1A          2.1230    -2.9170     0.3020 h1         1 LGB       0.076200
     27 H3           4.1160     0.3340     0.8940 h1         1 LGB       0.120700
     28 H4           3.3390    -0.9910    -1.7320 h1         1 LGB       0.041700
     29 H5           5.0500    -2.1660     0.4940 hc         1 LGB       0.068700
     30 H5A          4.2430    -3.0490    -0.8030 hc         1 LGB       0.068700
     31 H8           2.7280     1.4800    -1.3330 h1         1 LGB       0.118700
     32 H14         -2.5210    -0.5090    -3.1500 ha         1 LGB       0.128000
     33 H15         -0.3380    -0.9290    -2.1190 ha         1 LGB       0.119000
     34 H16         -2.4090    -0.1570     2.7160 hc         1 LGB       0.056033
     35 H16A        -2.8140    -1.8590     2.5600 hc         1 LGB       0.056033
     36 H16B        -1.1300    -1.3450     2.4940 hc         1 LGB       0.056033
     37 HO18         5.5970    -0.8070    -2.0210 ho         1 LGB       0.459000
@<TRIPOS>BOND
     1     1     2 1   
     2     1     5 1   
     3     1    25 1   
     4     1    26 1   
     5     2     3 1   
     6     2     6 1   
     7     3     4 1   
     8     3     8 1   
     9     3    27 1   
    10     4     5 1   
    11     4    18 1   
    12     4    28 1   
    13     5    29 1   
    14     5    30 1   
    15     6     7 1   
    16     6     9 2   
    17     7     8 1   
    18     8    21 1   
    19     8    31 1   
    20     9    10 1   
    21    10    11 ar  
    22    10    15 ar  
    23    11    12 ar  
    24    11    16 1   
    25    12    13 ar  
    26    12    17 1   
    27    13    14 ar  
    28    13    19 1   
    29    14    15 ar  
    30    14    32 1   
    31    15    33 1   
    32    16    34 1   
    33    16    35 1   
    34    16    36 1   
    35    18    37 1   
    36    19    20 3   
    37    21    22 1   
    38    21    23 1   
    39    21    24 1   
@<TRIPOS>SUBSTRUCTURE
     1 LGB         1 TEMP              0 ****  ****    0 ROOT
