@<TRIPOS>MOLECULE
LGC
   22    22     1     0     0
SMALL
No Charge or Current Charge


@<TRIPOS>ATOM
      1 C1           1.5150    -0.1020    -0.6230 c          1 LGC       0.638100
      2 C2           0.3180    -0.2740    -1.6270 c6         1 LGC       0.036300
      3 O5           1.2100    -0.1240     0.7200 os         1 LGC      -0.435100
      4 O1           2.6660    -0.2780    -0.9990 o          1 LGC      -0.487000
      5 O2           0.5900     0.3020    -2.9400 oh         1 LGC      -0.704000
      6 C3          -1.0190     0.2740    -1.0780 c6         1 LGC       0.143300
      7 O3          -2.1000    -0.1150    -1.9420 oh         1 LGC      -0.664000
      8 C4          -1.2520    -0.2430     0.3590 c6         1 LGC       0.142300
      9 O4          -2.5350     0.2100     0.8280 oh         1 LGC      -0.711000
     10 C5          -0.0860     0.2740     1.2440 c6         1 LGC       0.192300
     11 C6          -0.1860    -0.2250     2.7230 c3         1 LGC       0.166600
     12 O6           0.9120     0.2150     3.5470 oh         1 LGC      -0.642000
     13 HC2          0.2070    -1.3650    -1.7200 h1         1 LGC       0.063700
     14 HO2          1.4970     0.0110    -3.2100 ho         1 LGC       0.531000
     15 HC3         -0.9480     1.3730    -1.0430 h1         1 LGC       0.066700
     16 HO3         -1.7450    -0.0030    -2.8560 ho         1 LGC       0.472000
     17 HC4         -1.2250    -1.3430     0.3490 h1         1 LGC       0.052700
     18 HO4         -3.1220     0.1560     0.0320 ho         1 LGC       0.531000
     19 HC5         -0.1230     1.3730     1.2590 h1         1 LGC       0.085700
     20 HC61        -0.2300    -1.3220     2.7110 h1         1 LGC       0.037200
     21 HC62        -1.1340     0.1340     3.1450 h1         1 LGC       0.037200
     22 HO6          0.7820    -0.1830     4.4360 ho         1 LGC       0.447000
@<TRIPOS>BOND
     1     1     2 1   
     2     1     3 1   
     3     1     4 2   
     4     2     5 1   
     5     2     6 1   
     6     2    13 1   
     7     3    10 1   
     8     5    14 1   
     9     6     7 1   
    10     6     8 1   
    11     6    15 1   
    12     7    16 1   
    13     8     9 1   
    14     8    10 1   
    15     8    17 1   
    16     9    18 1   
    17    10    11 1   
    18    10    19 1   
    19    11    12 1   
    20    11    20 1   
    21    11    21 1   
    22    12    22 1   
@<TRIPOS>SUBSTRUCTURE
     1 LGC         1 TEMP              0 ****  ****    0 ROOT
