@<TRIPOS>MOLECULE
LGC
   22    22     1     0     0
SMALL
abcg2


@<TRIPOS>ATOM
      1 C1           1.4950    -0.0540    -0.5800 c          1 LGC       0.638100
      2 C2           0.3630    -0.3370    -1.5580 c6         1 LGC       0.036300
      3 O5           1.2100     0.0320     0.7140 os         1 LGC      -0.435100
      4 O1           2.6420     0.0100    -0.9320 o          1 LGC      -0.487000
      5 O2           0.6720     0.1300    -2.8360 oh         1 LGC      -0.704000
      6 C3          -0.9480     0.2840    -1.1080 c6         1 LGC       0.143300
      7 O3          -2.0230    -0.1480    -1.8990 oh         1 LGC      -0.664000
      8 C4          -1.2210    -0.1660     0.3190 c6         1 LGC       0.142300
      9 O4          -2.4060     0.3880     0.8240 oh         1 LGC      -0.711000
     10 C5          -0.1000     0.3100     1.2350 c6         1 LGC       0.192300
     11 C6          -0.1760    -0.3380     2.6010 c3         1 LGC       0.166600
     12 O6           0.8020     0.2360     3.4300 oh         1 LGC      -0.642000
     13 HC2          0.2350    -1.4320    -1.5460 h1         1 LGC       0.063700
     14 HO2          1.4030    -0.3850    -3.1920 ho         1 LGC       0.531000
     15 HC3         -0.8560     1.3800    -1.1250 h1         1 LGC       0.066700
     16 HO3         -1.9770     0.2890    -2.7550 ho         1 LGC       0.472000
     17 HC4         -1.2590    -1.2670     0.3340 h1         1 LGC       0.052700
     18 HO4         -3.1320     0.1160     0.2530 ho         1 LGC       0.531000
     19 HC5         -0.1790     1.3980     1.3400 h1         1 LGC       0.085700
     20 HC61        -0.0360    -1.4210     2.4850 h1         1 LGC       0.037200
     21 HC62        -1.1870    -0.1810     2.9900 h1         1 LGC       0.037200
     22 HO6          0.6700    -0.0970     4.3220 ho         1 LGC       0.447000
@<TRIPOS>BOND
     1     1     2 1   
     2     1     3 1   
     3     1     4 2   
     4     2     5 1   
     5     2     6 1   
     6     2    13 1   
     7     3    10 1   
     8     5    14 1   
     9     6     7 1   
    10     6     8 1   
    11     6    15 1   
    12     7    16 1   
    13     8     9 1   
    14     8    10 1   
    15     8    17 1   
    16     9    18 1   
    17    10    11 1   
    18    10    19 1   
    19    11    12 1   
    20    11    20 1   
    21    11    21 1   
    22    12    22 1   
@<TRIPOS>SUBSTRUCTURE
     1 LGC         1 TEMP              0 ****  ****    0 ROOT
