@<TRIPOS>MOLECULE
LGD
   35    36     1     0     0
SMALL
No Charge or Current Charge


@<TRIPOS>ATOM
      1 N1          -2.6350     3.6990     0.2800 ns         1 LGD      -0.365100
      2 C2          -2.8730     5.0420     0.1810 c          1 LGD       0.557200
      3 C3          -1.6600     5.8520    -0.0160 cc         1 LGD      -0.224200
      4 C4          -0.3730     5.3220    -0.0970 cd         1 LGD      -0.096400
      5 F1           1.7150     6.1440     0.7160 f          1 LGD      -0.107333
      6 F2           1.5050     5.9240    -1.4410 f          1 LGD      -0.107333
      7 F3           0.5010     7.5410    -0.4080 f          1 LGD      -0.107333
      8 C5          -0.2310     3.8450     0.0260 ca         1 LGD      -0.072800
      9 C6           1.0220     3.1910    -0.0360 ca         1 LGD      -0.101000
     10 C7           1.1210     1.7910     0.0790 ca         1 LGD       0.296000
     11 C8          -0.0490     1.0340     0.2670 ca         1 LGD      -0.092000
     12 C9          -1.3010     1.6660     0.3350 ca         1 LGD      -0.128000
     13 C10         -1.3870     3.0610     0.2140 ca         1 LGD       0.074600
     14 C11          0.8350     6.2340    -0.3070 c3         1 LGD       0.350200
     15 C12          2.8100     0.1850     1.0790 c3         1 LGD       0.167800
     16 N13          2.3840     1.1520     0.0130 nh         1 LGD      -0.839400
     17 C14          3.3660     1.4810    -1.0750 c3         1 LGD       0.167800
     18 F4           3.4710    -0.1700     3.3530 f          1 LGD      -0.112000
     19 F5           3.8170     1.8230     2.5230 f          1 LGD      -0.112000
     20 F6           1.7840     1.1780     3.0190 f          1 LGD      -0.112000
     21 C15          2.9710     0.7670     2.5140 c3         1 LGD       0.271500
     22 F7           3.8990     1.4570    -3.4080 f          1 LGD      -0.112000
     23 F8           2.3660     0.0530    -2.7330 f          1 LGD      -0.112000
     24 F9           1.9160     2.1930    -2.8650 f          1 LGD      -0.112000
     25 C16          2.8740     1.2930    -2.5410 c3         1 LGD       0.271500
     26 O21         -4.0000     5.5050     0.2510 o          1 LGD      -0.534000
     27 HN1         -3.4490     3.1140     0.4160 hn         1 LGD       0.333500
     28 H3          -1.8590     6.9140    -0.0950 ha         1 LGD       0.228000
     29 H9          -2.1990     1.0700     0.4770 ha         1 LGD       0.126000
     30 H8           0.0100    -0.0470     0.3490 ha         1 LGD       0.120000
     31 H6           1.9360     3.7570    -0.1650 ha         1 LGD       0.126000
     32 H121         2.0940    -0.6460     1.1330 h1         1 LGD       0.089450
     33 H122         3.7690    -0.2780     0.8100 h1         1 LGD       0.089450
     34 H141         3.7040     2.5200    -0.9630 h1         1 LGD       0.089450
     35 H142         4.2700     0.8680    -0.9640 h1         1 LGD       0.089450
@<TRIPOS>BOND
     1     1     2 1   
     2     1    13 1   
     3     1    27 1   
     4     2     3 1   
     5     2    26 2   
     6     3     4 2   
     7     3    28 1   
     8     4     8 1   
     9     4    14 1   
    10     5    14 1   
    11     6    14 1   
    12     7    14 1   
    13     8     9 ar  
    14     8    13 ar  
    15     9    10 ar  
    16     9    31 1   
    17    10    11 ar  
    18    10    16 1   
    19    11    12 ar  
    20    11    30 1   
    21    12    13 ar  
    22    12    29 1   
    23    15    16 1   
    24    15    21 1   
    25    15    32 1   
    26    15    33 1   
    27    16    17 1   
    28    17    25 1   
    29    17    34 1   
    30    17    35 1   
    31    18    21 1   
    32    19    21 1   
    33    20    21 1   
    34    22    25 1   
    35    23    25 1   
    36    24    25 1   
@<TRIPOS>SUBSTRUCTURE
     1 LGD         1 TEMP              0 ****  ****    0 ROOT
