@<TRIPOS>MOLECULE
LGD
   35    36     1     0     0
SMALL
bcc


@<TRIPOS>ATOM
      1 N1          -2.6160     3.7940     0.5310 ns         1 LGD      -0.432100
      2 C2          -2.8690     5.1040     0.2650 c          1 LGD       0.699700
      3 C3          -1.7060     5.8570    -0.1810 cc         1 LGD      -0.174200
      4 C4          -0.4900     5.2940    -0.3170 cd         1 LGD      -0.096400
      5 F1           1.6300     6.1970     0.1370 f          1 LGD      -0.228633
      6 F2           1.1950     5.6760    -1.9110 f          1 LGD      -0.228633
      7 F3           0.2930     7.4080    -1.0250 f          1 LGD      -0.228633
      8 C5          -0.2750     3.8940    -0.0200 ca         1 LGD      -0.072800
      9 C6           0.9570     3.2290    -0.1290 ca         1 LGD      -0.119000
     10 C7           1.0950     1.8820     0.1690 ca         1 LGD       0.157600
     11 C8          -0.0560     1.1870     0.5910 ca         1 LGD      -0.110000
     12 C9          -1.2680     1.8190     0.7110 ca         1 LGD      -0.146000
     13 C10         -1.3970     3.1750     0.4100 ca         1 LGD       0.074600
     14 C11          0.6570     6.1510    -0.7820 c3         1 LGD       0.714100
     15 C12          2.5900     0.0090     0.7670 c3         1 LGD       0.167800
     16 N13          2.3210     1.2240     0.0480 nh         1 LGD      -0.701000
     17 C14          3.4040     1.7850    -0.7150 c3         1 LGD       0.167800
     18 F4           3.2520    -0.8690     2.8520 f          1 LGD      -0.233300
     19 F5           4.0530     1.0590     2.3070 f          1 LGD      -0.233300
     20 F6           1.9950     0.8830     2.8950 f          1 LGD      -0.233300
     21 C15          2.9710     0.2720     2.2120 c3         1 LGD       0.635400
     22 F7           4.3100     1.9590    -2.8810 f          1 LGD      -0.233300
     23 F8           3.2220     0.1530    -2.4170 f          1 LGD      -0.233300
     24 F9           2.1600     1.9930    -2.7320 f          1 LGD      -0.233300
     25 C16          3.2700     1.4730    -2.1930 c3         1 LGD       0.635400
     26 O21         -3.9830     5.5950     0.3940 o          1 LGD      -0.609500
     27 HN1         -3.4010     3.2340     0.8420 hn         1 LGD       0.333500
     28 H3          -1.8800     6.9010    -0.4000 ha         1 LGD       0.178000
     29 H9          -2.1330     1.2550     1.0360 ha         1 LGD       0.144000
     30 H8          -0.0210     0.1330     0.8200 ha         1 LGD       0.138000
     31 H6           1.8230     3.7850    -0.4440 ha         1 LGD       0.144000
     32 H121         1.7500    -0.6860     0.7450 h1         1 LGD       0.089450
     33 H122         3.4160    -0.5220     0.2940 h1         1 LGD       0.089450
     34 H141         3.5030     2.8640    -0.5850 h1         1 LGD       0.089450
     35 H142         4.3510     1.3700    -0.3720 h1         1 LGD       0.089450
@<TRIPOS>BOND
     1     1     2 1   
     2     1    13 1   
     3     1    27 1   
     4     2     3 1   
     5     2    26 2   
     6     3     4 2   
     7     3    28 1   
     8     4     8 1   
     9     4    14 1   
    10     5    14 1   
    11     6    14 1   
    12     7    14 1   
    13     8     9 ar  
    14     8    13 ar  
    15     9    10 ar  
    16     9    31 1   
    17    10    11 ar  
    18    10    16 1   
    19    11    12 ar  
    20    11    30 1   
    21    12    13 ar  
    22    12    29 1   
    23    15    16 1   
    24    15    21 1   
    25    15    32 1   
    26    15    33 1   
    27    16    17 1   
    28    17    25 1   
    29    17    34 1   
    30    17    35 1   
    31    18    21 1   
    32    19    21 1   
    33    20    21 1   
    34    22    25 1   
    35    23    25 1   
    36    24    25 1   
@<TRIPOS>SUBSTRUCTURE
     1 LGD         1 TEMP              0 ****  ****    0 ROOT
