@<TRIPOS>MOLECULE
LGE
   43    45     1     0     0
SMALL
abcg2


@<TRIPOS>ATOM
      1 C01         -2.1210    -0.6050     1.4240 ca         1 LGE      -0.057000
      2 C02         -3.0250    -1.6520     1.4900 ca         1 LGE      -0.107000
      3 C03         -3.1120    -1.7070    -0.9240 ca         1 LGE      -0.106000
      4 C04         -1.6870    -0.0950     0.2040 cp         1 LGE      -0.046000
      5 C05         -0.6820     0.9910     0.1590 cp         1 LGE       0.032000
      6 C06          0.6360     0.7100    -0.1680 ca         1 LGE      -0.120300
      7 C07         -0.9970     2.3170     0.4450 ca         1 LGE      -0.091300
      8 C08         -3.5110    -2.1930     0.3100 ca         1 LGE       0.130000
      9 C09         -2.2020    -0.6620    -0.9580 ca         1 LGE       0.130000
     10 C10          1.5470     1.7400    -0.1860 ca         1 LGE       0.293500
     11 C11          0.0230     3.2940     0.3990 ca         1 LGE       0.351300
     12 C12          2.8810     1.1950    -0.5480 c          1 LGE       0.481500
     13 C13          4.3570    -1.5780     0.2280 c          1 LGE       0.563100
     14 C14          1.3190    -0.5690    -0.5160 c5         1 LGE       0.152300
     15 C15         -0.2740     4.7350     0.6950 c3         1 LGE      -0.147400
     16 C16          5.9900    -3.0600     1.0530 c3         1 LGE       0.152900
     17 C17         -2.4010     2.7020     0.8290 c3         1 LGE       0.191100
     18 N19          1.2810     3.0040     0.0870 nb         1 LGE      -0.599000
     19 N20          2.6750    -0.1260    -0.7760 n          1 LGE      -0.410800
     20 N21         -2.5910     2.5480     2.2670 n8         1 LGE      -0.995200
     21 O22          3.9380     1.7880    -0.6370 o          1 LGE      -0.502000
     22 O23          4.0290    -1.2450     1.3360 o          1 LGE      -0.473000
     23 O24          5.3050    -2.4550    -0.0470 os         1 LGE      -0.445100
     24 CL25        -4.6420    -3.4980     0.3700 cl         1 LGE      -0.188000
     25 CL26        -1.7190    -0.0470    -2.5010 cl         1 LGE      -0.187000
     26 H01         -1.7450    -0.1690     2.3380 ha         1 LGE       0.145000
     27 H02         -3.3440    -2.0390     2.4470 ha         1 LGE       0.138000
     28 H03         -3.5000    -2.1290    -1.8400 ha         1 LGE       0.146000
     29 H14          1.2810    -1.2880     0.3070 h1         1 LGE       0.071200
     30 H14A         0.8890    -1.0490    -1.3990 h1         1 LGE       0.071200
     31 H15         -0.7500     4.8640     1.6680 hc         1 LGE       0.053700
     32 H15A         0.6480     5.3120     0.6910 hc         1 LGE       0.053700
     33 H15B        -0.9460     5.1650    -0.0490 hc         1 LGE       0.053700
     34 H16          6.5090    -2.3140     1.6540 h1         1 LGE       0.050033
     35 H16A         5.3030    -3.6200     1.6860 h1         1 LGE       0.050033
     36 H16B         6.7140    -3.7400     0.6150 h1         1 LGE       0.050033
     37 H17         -2.6170     3.7100     0.4580 h1         1 LGE       0.044200
     38 H17A        -3.1050     2.0390     0.3250 h1         1 LGE       0.044200
     39 H18          4.5110    -0.5490    -1.6400 h1         1 LGE       0.089700
     40 H18A         3.3660    -1.8730    -1.6500 h1         1 LGE       0.089700
     41 HN21        -2.0320     3.2320     2.7620 hn         1 LGE       0.397500
     42 HN2A        -3.5530     2.7660     2.4930 hn         1 LGE       0.397500
     43 C18          3.7360    -1.0410    -1.0470 c3         1 LGE       0.051000
@<TRIPOS>BOND
     1     1     2 ar  
     2     1     4 ar  
     3     1    26 1   
     4     2     8 ar  
     5     2    27 1   
     6     3     8 ar  
     7     3     9 ar  
     8     3    28 1   
     9     4     5 1   
    10     4     9 ar  
    11     5     6 ar  
    12     5     7 ar  
    13     6    10 ar  
    14     6    14 1   
    15     7    11 ar  
    16     7    17 1   
    17     8    24 1   
    18     9    25 1   
    19    10    12 1   
    20    10    18 ar  
    21    11    15 1   
    22    11    18 ar  
    23    12    19 1   
    24    12    21 2   
    25    13    22 2   
    26    13    23 1   
    27    13    43 1   
    28    14    19 1   
    29    14    29 1   
    30    14    30 1   
    31    15    31 1   
    32    15    32 1   
    33    15    33 1   
    34    16    23 1   
    35    16    34 1   
    36    16    35 1   
    37    16    36 1   
    38    17    20 1   
    39    17    37 1   
    40    17    38 1   
    41    19    43 1   
    42    20    41 1   
    43    20    42 1   
    44    39    43 1   
    45    40    43 1   
@<TRIPOS>SUBSTRUCTURE
     1 LGE         1 TEMP              0 ****  ****    0 ROOT
