@<TRIPOS>MOLECULE
LGE
   43    45     1     0     0
SMALL
No Charge or Current Charge


@<TRIPOS>ATOM
      1 C01         -2.1760    -0.6510     1.4230 ca         1 LGE      -0.057000
      2 C02         -3.1250    -1.6870     1.4450 ca         1 LGE      -0.107000
      3 C03         -3.2310    -1.6420    -0.9840 ca         1 LGE      -0.106000
      4 C04         -1.7380    -0.0970     0.1970 cp         1 LGE      -0.046000
      5 C05         -0.7240     0.9970     0.1890 cp         1 LGE       0.032000
      6 C06          0.6280     0.7490    -0.1030 ca         1 LGE      -0.120300
      7 C07         -1.0420     2.3600     0.4690 ca         1 LGE      -0.091300
      8 C08         -3.6500    -2.1820     0.2410 ca         1 LGE       0.130000
      9 C09         -2.2830    -0.6070    -1.0090 ca         1 LGE       0.130000
     10 C10          1.5710     1.7440    -0.1190 ca         1 LGE       0.293500
     11 C11          0.0020     3.3380     0.4260 ca         1 LGE       0.351300
     12 C12          2.8780     1.0980    -0.4540 c          1 LGE       0.481500
     13 C13          4.5210    -1.7160     0.2770 c          1 LGE       0.563100
     14 C14          1.1660    -0.6390    -0.4090 c5         1 LGE       0.152300
     15 C15         -0.2570     4.8140     0.7010 c3         1 LGE      -0.147400
     16 C16          6.4530    -3.0160     0.9070 c3         1 LGE       0.152900
     17 C17         -2.4800     2.7680     0.7880 c3         1 LGE       0.191100
     18 N19          1.2970     3.0440     0.1370 nb         1 LGE      -0.599000
     19 N20          2.6080    -0.2780    -0.6210 n          1 LGE      -0.410800
     20 N21         -2.7630     2.7010     2.2360 n8         1 LGE      -0.995200
     21 O22          3.9780     1.6290    -0.5650 o          1 LGE      -0.502000
     22 O23          4.2590    -1.4460     1.4430 o          1 LGE      -0.473000
     23 O24          5.5830    -2.4930    -0.1140 os         1 LGE      -0.445100
     24 Cl25        -4.8380    -3.4780     0.2680 cl         1 LGE      -0.188000
     25 Cl26        -1.7970     0.0510    -2.5710 cl         1 LGE      -0.187000
     26 H01         -1.7750    -0.2680     2.3590 ha         1 LGE       0.145000
     27 H02         -3.4540    -2.1050     2.3940 ha         1 LGE       0.138000
     28 H03         -3.6420    -2.0250    -1.9140 ha         1 LGE       0.146000
     29 H14          1.0330    -1.3270     0.4360 h1         1 LGE       0.071200
     30 H14A         0.7140    -1.0690    -1.3120 h1         1 LGE       0.071200
     31 H15         -0.7530     4.9550     1.6680 hc         1 LGE       0.053700
     32 H15A         0.6730     5.3960     0.7270 hc         1 LGE       0.053700
     33 H15B        -0.8930     5.2500    -0.0770 hc         1 LGE       0.053700
     34 H16          6.9180    -2.2020     1.4800 h1         1 LGE       0.050033
     35 H16A         5.8990    -3.6590     1.6040 h1         1 LGE       0.050033
     36 H16B         7.2550    -3.6140     0.4570 h1         1 LGE       0.050033
     37 H17         -2.6820     3.7870     0.4310 h1         1 LGE       0.044200
     38 H17A        -3.1790     2.1020     0.2640 h1         1 LGE       0.044200
     39 H18          4.3870    -0.8010    -1.6560 h1         1 LGE       0.089700
     40 H18A         3.2620    -2.1410    -1.4020 h1         1 LGE       0.089700
     41 HN21        -2.1880     3.3950     2.7270 hn         1 LGE       0.397500
     42 HN2A        -3.7250     3.0210     2.4040 hn         1 LGE       0.397500
     43 C18          3.6920    -1.2470    -0.9340 c3         1 LGE       0.051000
@<TRIPOS>BOND
     1     1     2 ar  
     2     1     4 ar  
     3     1    26 1   
     4     2     8 ar  
     5     2    27 1   
     6     3     8 ar  
     7     3     9 ar  
     8     3    28 1   
     9     4     5 1   
    10     4     9 ar  
    11     5     6 ar  
    12     5     7 ar  
    13     6    10 ar  
    14     6    14 1   
    15     7    11 ar  
    16     7    17 1   
    17     8    24 1   
    18     9    25 1   
    19    10    12 1   
    20    10    18 ar  
    21    11    15 1   
    22    11    18 ar  
    23    12    19 1   
    24    12    21 2   
    25    13    22 2   
    26    13    23 1   
    27    13    43 1   
    28    14    19 1   
    29    14    29 1   
    30    14    30 1   
    31    15    31 1   
    32    15    32 1   
    33    15    33 1   
    34    16    23 1   
    35    16    34 1   
    36    16    35 1   
    37    16    36 1   
    38    17    20 1   
    39    17    37 1   
    40    17    38 1   
    41    19    43 1   
    42    20    41 1   
    43    20    42 1   
    44    39    43 1   
    45    40    43 1   
@<TRIPOS>SUBSTRUCTURE
     1 LGE         1 TEMP              0 ****  ****    0 ROOT
