@<TRIPOS>MOLECULE
LGF
   64    69     1     0     0
SMALL
bcc


@<TRIPOS>ATOM
      1 C13          8.6070     1.5290     0.0870 ca         1 LGF       0.176900
      2 C18         -0.4140     0.7760    -0.8270 ca         1 LGF      -0.313900
      3 C16          0.6500     0.5110    -1.8430 c          1 LGF       0.712700
      4 C15          6.2370     1.6470     0.0360 ca         1 LGF      -0.067000
      5 C19         -1.7430     0.5610    -1.1270 ca         1 LGF       0.034000
      6 C21         -0.0730     1.3680     0.4130 ca         1 LGF       0.693600
      7 C22         -2.2110     1.4470     1.0310 ca         1 LGF       0.468800
      8 C23         -2.6940     0.8940    -0.1620 ca         1 LGF      -0.202100
      9 C24         -4.1240     0.8320    -0.0350 cc         1 LGF      -0.223400
     10 C11          7.3270    -0.3380     0.7550 ca         1 LGF       0.203900
     11 C12          8.5690     0.2310     0.5570 ca         1 LGF      -0.226000
     12 C27         -5.0500     0.2970    -0.9980 c          1 LGF       0.544300
     13 F33          9.8000     2.0990    -0.1130 f          1 LGF      -0.132900
     14 C14          7.4620     2.2540    -0.1820 ca         1 LGF      -0.194000
     15 F32          7.2780    -1.5990     1.1890 f          1 LGF      -0.116900
     16 C10          6.1370     0.3370     0.5060 ca         1 LGF      -0.184500
     17 C9           4.8420    -0.3040     0.7520 cc         1 LGF       0.454000
     18 N8           4.4640    -0.8530     1.8800 nd         1 LGF      -0.648000
     19 N5           3.8630    -0.3870    -0.1860 na         1 LGF      -0.165900
     20 C6           2.7980    -1.0140     0.3960 cc         1 LGF      -0.228900
     21 C7           3.1930    -1.2980     1.6720 cd         1 LGF       0.302200
     22 C4           1.5550    -1.2950    -0.3830 c6         1 LGF       0.183300
     23 N3           1.5320    -0.4760    -1.5770 n          1 LGF      -0.468800
     24 C2           2.7610    -0.5940    -2.3370 c6         1 LGF       0.078000
     25 C1           3.8880     0.0750    -1.5650 c6         1 LGF       0.016300
     26 O17          0.6860     1.1660    -2.8730 o          1 LGF      -0.580100
     27 N26         -3.2840     1.7030     1.8390 na         1 LGF      -0.258100
     28 C25         -4.4230     1.3430     1.2120 cd         1 LGF      -0.026100
     29 N20         -0.9460     1.6960     1.3350 nb         1 LGF      -0.766000
     30 O34          1.2230     1.5920     0.6090 os         1 LGF      -0.433100
     31 C35          1.6500     2.0580     1.8810 c3         1 LGF       0.135700
     32 O28         -4.7100    -0.1630    -2.0730 o          1 LGF      -0.513100
     33 C29         -6.5360     0.3810    -0.6580 c          1 LGF       0.582100
     34 O31         -7.0370     1.4840    -0.4800 o          1 LGF      -0.595100
     35 N30         -7.2110    -0.7650    -0.6240 n          1 LGF      -0.462800
     36 C36         -8.6410    -0.7910    -0.3530 c5         1 LGF       0.057000
     37 C37         -8.9960    -2.2790    -0.4740 c5         1 LGF       0.133100
     38 O40        -10.0750    -2.6730     0.3280 oh         1 LGF      -0.584800
     39 C38         -7.7110    -2.9680    -0.0430 c5         1 LGF      -0.096400
     40 C39         -6.6350    -2.1110    -0.6910 c5         1 LGF       0.102000
     41 H1           5.3350     2.2160    -0.1480 ha         1 LGF       0.143000
     42 H2          -2.0290     0.1310    -2.0760 ha         1 LGF       0.172000
     43 H3           9.4750    -0.3250     0.7570 ha         1 LGF       0.172000
     44 H4           7.5220     3.2710    -0.5430 ha         1 LGF       0.159000
     45 H5           2.6250    -1.7930     2.4450 h4         1 LGF       0.040100
     46 H6           1.5360    -2.3450    -0.6930 h1         1 LGF       0.068200
     47 H7           0.6680    -1.1440     0.2290 h1         1 LGF       0.068200
     48 H8           2.9780    -1.6540    -2.4900 h1         1 LGF       0.077700
     49 H9           2.6560    -0.1310    -3.3140 h1         1 LGF       0.077700
     50 H10          3.7610     1.1590    -1.5960 h1         1 LGF       0.069700
     51 H11          4.8510    -0.1670    -2.0130 h1         1 LGF       0.069700
     52 H12         -3.2350     2.1130     2.7600 hn         1 LGF       0.318700
     53 H13         -5.3770     1.4780     1.6940 h4         1 LGF       0.186000
     54 H14          2.7350     2.0950     1.8340 h1         1 LGF       0.051367
     55 H15          1.2610     3.0540     2.0940 h1         1 LGF       0.051367
     56 H16          1.3490     1.3790     2.6790 h1         1 LGF       0.051367
     57 H17         -8.8510    -0.4350     0.6600 h1         1 LGF       0.063200
     58 H18         -9.1890    -0.1640    -1.0570 h1         1 LGF       0.063200
     59 H19         -9.1840    -2.5110    -1.5310 h1         1 LGF       0.042700
     60 H20        -10.8860    -2.3230    -0.0550 ho         1 LGF       0.412000
     61 H21         -7.6210    -2.9280     1.0450 hc         1 LGF       0.068200
     62 H22         -7.6520    -4.0100    -0.3560 hc         1 LGF       0.068200
     63 H23         -6.4650    -2.4070    -1.7280 h1         1 LGF       0.059700
     64 H24         -5.6850    -2.1670    -0.1610 h1         1 LGF       0.059700
@<TRIPOS>BOND
     1     1    11 ar  
     2     1    13 1   
     3     1    14 ar  
     4     2     3 1   
     5     2     5 ar  
     6     2     6 ar  
     7     3    23 1   
     8     3    26 2   
     9     4    14 ar  
    10     4    16 ar  
    11     4    41 1   
    12     5     8 ar  
    13     5    42 1   
    14     6    29 ar  
    15     6    30 1   
    16     7     8 ar  
    17     7    27 1   
    18     7    29 ar  
    19     8     9 1   
    20     9    12 1   
    21     9    28 2   
    22    10    11 ar  
    23    10    15 1   
    24    10    16 ar  
    25    11    43 1   
    26    12    32 2   
    27    12    33 1   
    28    14    44 1   
    29    16    17 1   
    30    17    18 2   
    31    17    19 1   
    32    18    21 1   
    33    19    20 1   
    34    19    25 1   
    35    20    21 2   
    36    20    22 1   
    37    21    45 1   
    38    22    23 1   
    39    22    46 1   
    40    22    47 1   
    41    23    24 1   
    42    24    25 1   
    43    24    48 1   
    44    24    49 1   
    45    25    50 1   
    46    25    51 1   
    47    27    28 1   
    48    27    52 1   
    49    28    53 1   
    50    30    31 1   
    51    31    54 1   
    52    31    55 1   
    53    31    56 1   
    54    33    34 2   
    55    33    35 1   
    56    35    36 1   
    57    35    40 1   
    58    36    37 1   
    59    36    57 1   
    60    36    58 1   
    61    37    38 1   
    62    37    39 1   
    63    37    59 1   
    64    38    60 1   
    65    39    40 1   
    66    39    61 1   
    67    39    62 1   
    68    40    63 1   
    69    40    64 1   
@<TRIPOS>SUBSTRUCTURE
     1 LGF         1 TEMP              0 ****  ****    0 ROOT
