@<TRIPOS>MOLECULE
LGF
   64    69     1     0     0
SMALL
No Charge or Current Charge


@<TRIPOS>ATOM
      1 C13          9.2490    -0.5400    -0.2070 ca         1 LGF       0.212000
      2 C18         -0.8140     1.7270    -0.7440 ca         1 LGF      -0.248600
      3 C16          0.4020     1.6380    -1.5970 c          1 LGF       0.645700
      4 C15          7.0790     0.4570     0.2440 ca         1 LGF      -0.049000
      5 C19         -2.0330     1.2080    -1.2180 ca         1 LGF       0.052000
      6 C21         -0.7860     2.3830     0.5020 ca         1 LGF       0.628300
      7 C22         -3.0260     1.9570     0.8500 ca         1 LGF       0.403500
      8 C23         -3.1370     1.3360    -0.3700 ca         1 LGF      -0.136800
      9 C24         -4.5020     0.9030    -0.5340 cc         1 LGF      -0.223400
     10 C11          7.2750    -1.9420    -0.0970 ca         1 LGF       0.239000
     11 C12          8.6580    -1.8050    -0.2830 ca         1 LGF      -0.208000
     12 C27         -5.1160     0.1780    -1.6830 c          1 LGF       0.544300
     13 F33         10.5820    -0.4080    -0.3830 f          1 LGF      -0.168000
     14 C14          8.4650     0.5900     0.0590 ca         1 LGF      -0.176000
     15 F32          6.7330    -3.1770    -0.2010 f          1 LGF      -0.152000
     16 C10          6.4620    -0.8120     0.1480 ca         1 LGF      -0.184500
     17 C9           5.0230    -0.9540     0.3870 cc         1 LGF       0.454000
     18 N8           4.4640    -1.9080     1.1220 nd         1 LGF      -0.648000
     19 N5           4.0480    -0.0970    -0.0960 na         1 LGF      -0.144500
     20 C6           2.8430    -0.5380     0.3610 cc         1 LGF      -0.214300
     21 C7           3.1050    -1.6540     1.1100 cd         1 LGF       0.236900
     22 C4           1.5170     0.1020     0.0480 c6         1 LGF       0.183300
     23 N3           1.5960     1.1440    -1.0320 n          1 LGF      -0.401800
     24 C2           2.8640     1.1740    -1.8410 c6         1 LGF       0.078000
     25 C1           4.1710     1.0370    -1.0160 c6         1 LGF       0.045600
     26 O17          0.3640     2.0330    -2.7550 o          1 LGF      -0.580100
     27 N26         -4.2550     1.9440     1.4760 na         1 LGF      -0.308400
     28 C25         -5.1750     1.2900     0.6190 cd         1 LGF      -0.076100
     29 N20         -1.8790     2.4900     1.2960 nb         1 LGF      -0.766000
     30 O34          0.3840     2.9840     0.9060 os         1 LGF      -0.456300
     31 C35          0.4930     3.6370     2.1860 c3         1 LGF       0.158900
     32 O28         -4.4700    -0.1360    -2.6830 o          1 LGF      -0.513100
     33 C29         -6.6640    -0.1940    -1.5650 c          1 LGF       0.515100
     34 O31         -7.5290     0.4800    -2.1260 o          1 LGF      -0.595100
     35 N30         -7.0290    -1.3190    -0.7880 n          1 LGF      -0.395800
     36 C36         -8.4300    -1.7670    -0.6190 c5         1 LGF       0.057000
     37 C37         -8.2450    -3.1940    -0.0220 c5         1 LGF       0.156300
     38 O40         -9.3580    -3.6160     0.7670 oh         1 LGF      -0.647000
     39 C38         -6.9740    -2.9990     0.8410 c5         1 LGF      -0.096400
     40 C39         -6.0520    -2.2010    -0.1150 c5         1 LGF       0.102000
     41 H1           6.4910     1.3420     0.4800 ha         1 LGF       0.125000
     42 H2          -2.1030     0.7210    -2.1880 ha         1 LGF       0.154000
     43 H3           9.2690    -2.6790    -0.4860 ha         1 LGF       0.154000
     44 H4           8.9350     1.5680     0.1310 ha         1 LGF       0.141000
     45 H5           2.3990    -2.2870     1.6340 h4         1 LGF       0.040100
     46 H6           0.7970    -0.6710    -0.2590 h1         1 LGF       0.068200
     47 H7           1.1210     0.5550     0.9670 h1         1 LGF       0.068200
     48 H8           2.8240     0.3550    -2.5730 h1         1 LGF       0.077700
     49 H9           2.9140     2.1120    -2.4130 h1         1 LGF       0.077700
     50 H10          4.3350     1.9530    -0.4320 h1         1 LGF       0.069700
     51 H11          5.0270     0.8910    -1.6890 h1         1 LGF       0.069700
     52 H12         -4.4450     2.3410     2.3870 hn         1 LGF       0.369000
     53 H13         -6.2200     1.1560     0.8970 h4         1 LGF       0.236000
     54 H14          1.5050     4.0400     2.3230 h1         1 LGF       0.051367
     55 H15         -0.2170     4.4700     2.2650 h1         1 LGF       0.051367
     56 H16          0.2960     2.9310     3.0040 h1         1 LGF       0.051367
     57 H17         -8.9670    -1.1030     0.0710 h1         1 LGF       0.063200
     58 H18         -8.9700    -1.7940    -1.5740 h1         1 LGF       0.063200
     59 H19         -8.0460    -3.9190    -0.8250 h1         1 LGF       0.042700
     60 H20        -10.1040    -3.7760     0.1470 ho         1 LGF       0.451000
     61 H21         -7.1930    -2.4210     1.7470 hc         1 LGF       0.068200
     62 H22         -6.5270    -3.9470     1.1570 hc         1 LGF       0.068200
     63 H23         -5.5570    -2.8580    -0.8430 h1         1 LGF       0.059700
     64 H24         -5.2820    -1.6450     0.4360 h1         1 LGF       0.059700
@<TRIPOS>BOND
     1     1    11 ar  
     2     1    13 1   
     3     1    14 ar  
     4     2     3 1   
     5     2     5 ar  
     6     2     6 ar  
     7     3    23 1   
     8     3    26 2   
     9     4    14 ar  
    10     4    16 ar  
    11     4    41 1   
    12     5     8 ar  
    13     5    42 1   
    14     6    29 ar  
    15     6    30 1   
    16     7     8 ar  
    17     7    27 1   
    18     7    29 ar  
    19     8     9 1   
    20     9    12 1   
    21     9    28 2   
    22    10    11 ar  
    23    10    15 1   
    24    10    16 ar  
    25    11    43 1   
    26    12    32 2   
    27    12    33 1   
    28    14    44 1   
    29    16    17 1   
    30    17    18 2   
    31    17    19 1   
    32    18    21 1   
    33    19    20 1   
    34    19    25 1   
    35    20    21 2   
    36    20    22 1   
    37    21    45 1   
    38    22    23 1   
    39    22    46 1   
    40    22    47 1   
    41    23    24 1   
    42    24    25 1   
    43    24    48 1   
    44    24    49 1   
    45    25    50 1   
    46    25    51 1   
    47    27    28 1   
    48    27    52 1   
    49    28    53 1   
    50    30    31 1   
    51    31    54 1   
    52    31    55 1   
    53    31    56 1   
    54    33    34 2   
    55    33    35 1   
    56    35    36 1   
    57    35    40 1   
    58    36    37 1   
    59    36    57 1   
    60    36    58 1   
    61    37    38 1   
    62    37    39 1   
    63    37    59 1   
    64    38    60 1   
    65    39    40 1   
    66    39    61 1   
    67    39    62 1   
    68    40    63 1   
    69    40    64 1   
@<TRIPOS>SUBSTRUCTURE
     1 LGF         1 TEMP              0 ****  ****    0 ROOT
