@<TRIPOS>MOLECULE
LGG
  101   101     1     0     0
SMALL
abcg2


@<TRIPOS>ATOM
      1 N1           0.8340     5.4220     4.5030 ns         1 LGG      -0.485900
      2 N3          -3.0200     0.7320     5.9900 ns         1 LGG      -0.466900
      3 C4           0.9270     4.1000     5.0710 c3         1 LGG       0.037700
      4 C5          -0.3330     3.3390     4.6760 c          1 LGG       0.623100
      5 C6          -1.5700     0.7180     1.1230 ca         1 LGG      -0.101500
      6 C7          -1.3140     1.2590    -0.1290 ca         1 LGG      -0.113500
      7 C8          -0.0180     1.6140    -0.4810 ca         1 LGG      -0.123000
      8 C10          0.7530     0.8810     1.6790 ca         1 LGG      -0.101500
      9 C13         -1.2630     1.0960     4.3730 c3         1 LGG       0.037700
     10 C17         -4.9800     0.9680     7.4120 c3         1 LGG      -0.078400
     11 C20         -2.8050    -2.1240    11.2860 c3         1 LGG      -0.090600
     12 C21         -2.3140    -4.3430    10.2040 c3         1 LGG      -0.090600
     13 C24         -4.5830    -3.0530     8.6270 c3         1 LGG       0.035700
     14 C26         -6.2260    -1.8510     3.2920 c          1 LGG       0.601100
     15 C28         -7.4050    -3.0220     5.1620 c3         1 LGG      -0.088400
     16 C9           1.0150     1.4220     0.4270 ca         1 LGG      -0.113500
     17 C11         -0.5420     0.5230     2.0420 ca         1 LGG      -0.063300
     18 C12         -0.8440    -0.0200     3.4080 c3         1 LGG      -0.045100
     19 N2          -0.1760     2.0070     4.6110 ns         1 LGG      -0.471900
     20 O3          -1.3730     3.9190     4.4040 o          1 LGG      -0.618100
     21 C3           1.1440     4.1260     6.5940 c3         1 LGG      -0.065400
     22 C2           0.0740     4.8530     7.3960 c3         1 LGG      -0.199400
     23 C1          -1.1740     4.0400     7.7740 c          1 LGG       0.719000
     24 O1          -1.2020     2.8290     7.5200 o          1 LGG      -0.738500
     25 O2          -2.0860     4.7070     8.3380 o          1 LGG      -0.738500
     26 C33          1.9010     6.1860     4.2200 c          1 LGG       0.602100
     27 C34          1.5810     7.5560     3.6750 c3         1 LGG      -0.177100
     28 O11          3.0530     5.8180     4.4100 o          1 LGG      -0.639100
     29 C14         -1.7380     0.4840     5.6860 c          1 LGG       0.610100
     30 O4          -1.0160    -0.2310     6.3590 o          1 LGG      -0.600100
     31 C18         -3.6100     0.2920     7.2210 c3         1 LGG       0.030700
     32 C16         -4.8530     2.2970     8.1330 c3         1 LGG      -0.164400
     33 O5          -4.7640     1.1530    10.2410 o          1 LGG      -0.689100
     34 N4          -3.5650     3.0600    10.0140 nt         1 LGG      -0.599000
     35 C19         -3.7740    -1.2200     7.2410 c          1 LGG       0.601100
     36 O6          -3.7220    -1.9140     6.2360 o          1 LGG      -0.650100
     37 N5          -4.0570    -1.7150     8.4570 ns         1 LGG      -0.477900
     38 C23         -4.6850    -3.4260    10.1030 c3         1 LGG      -0.079400
     39 C25         -5.9750    -3.1010     7.9830 c          1 LGG       0.573100
     40 O7          -6.8520    -2.3320     8.3550 o          1 LGG      -0.617100
     41 N6          -6.1490    -4.0230     7.0320 ns         1 LGG      -0.468900
     42 C29         -7.3570    -4.1250     6.2250 c3         1 LGG       0.110700
     43 C30         -7.4710    -5.5250     5.6310 c3         1 LGG      -0.054400
     44 C31         -7.5220    -6.6390     6.6670 c3         1 LGG      -0.206400
     45 C32         -8.7450    -6.6210     7.6040 c          1 LGG       0.717000
     46 O9          -9.7560    -5.9950     7.2170 o          1 LGG      -0.743000
     47 O10         -8.6460    -7.2870     8.6550 o          1 LGG      -0.743000
     48 O8          -7.0730    -1.5730     2.4530 o          1 LGG      -0.648100
     49 N7          -5.1870    -1.0490     3.5770 nt         1 LGG      -0.613000
     50 HN1         -0.0920     5.7750     4.3210 hn         1 LGG       0.338500
     51 HN3         -3.5030     1.4470     5.4710 hn         1 LGG       0.318500
     52 H4           1.7870     3.5940     4.6240 h1         1 LGG       0.059700
     53 H6          -2.5850     0.4410     1.3890 ha         1 LGG       0.113500
     54 H7          -2.1260     1.4000    -0.8310 ha         1 LGG       0.104000
     55 H8           0.1870     2.0350    -1.4570 ha         1 LGG       0.099000
     56 H10          1.5670     0.7340     2.3790 ha         1 LGG       0.113500
     57 H13         -2.0660     1.6720     3.9110 h1         1 LGG       0.081700
     58 H171        -5.4490     1.1090     6.4350 hc         1 LGG       0.062700
     59 H172        -5.6500     0.3160     7.9720 hc         1 LGG       0.062700
     60 H201        -2.0260    -2.2420    12.0410 hc         1 LGG       0.033367
     61 H202        -3.5740    -1.4750    11.7090 hc         1 LGG       0.033367
     62 H203        -2.3550    -1.6050    10.4400 hc         1 LGG       0.033367
     63 H211        -1.9470    -3.8640     9.2940 hc         1 LGG       0.033367
     64 H212        -1.4520    -4.4960    10.8550 hc         1 LGG       0.033367
     65 H213        -2.7020    -5.3270     9.9310 hc         1 LGG       0.033367
     66 H22         -3.6380    -3.9930    11.8330 hc         1 LGG       0.030700
     67 H24         -3.9150    -3.7570     8.1260 h1         1 LGG       0.065700
     68 H281        -8.3820    -3.0500     4.6750 hc         1 LGG       0.055200
     69 H282        -7.3430    -2.0570     5.6710 hc         1 LGG       0.055200
     70 H9           2.0290     1.6920     0.1590 ha         1 LGG       0.104000
     71 H121        -1.6560    -0.7500     3.3490 hc         1 LGG       0.067200
     72 H122         0.0200    -0.5490     3.8180 hc         1 LGG       0.067200
     73 HN2          0.6880     1.6130     4.9520 hn         1 LGG       0.320500
     74 H31          1.2500     3.1000     6.9510 hc         1 LGG       0.045700
     75 H32          2.1120     4.6030     6.7560 hc         1 LGG       0.045700
     76 H21          0.5190     5.1930     8.3360 hc         1 LGG       0.031700
     77 H22A        -0.2300     5.7720     6.8860 hc         1 LGG       0.031700
     78 H341         1.8360     8.3070     4.4250 hc         1 LGG       0.052033
     79 H342         2.1940     7.7560     2.7970 hc         1 LGG       0.052033
     80 H343         0.5340     7.6850     3.4090 hc         1 LGG       0.052033
     81 H18         -2.9430     0.5650     8.0470 h1         1 LGG       0.104700
     82 H161        -5.8340     2.7820     8.1750 hc         1 LGG       0.071700
     83 H162        -4.1890     2.9750     7.5970 hc         1 LGG       0.071700
     84 HN41        -3.1950     2.9750    10.9480 hn         1 LGG       0.336500
     85 HN42        -3.0870     3.7040     9.3580 hn         1 LGG       0.336500
     86 HN5         -4.2220    -1.0500     9.2010 hn         1 LGG       0.346500
     87 H231        -5.1490    -4.4160    10.1410 hc         1 LGG       0.064700
     88 H232        -5.3800    -2.7430    10.6000 hc         1 LGG       0.064700
     89 HN6         -5.3410    -4.5460     6.7330 hn         1 LGG       0.304500
     90 H29         -8.2060    -3.9750     6.8930 h1         1 LGG       0.116700
     91 H301        -6.6340    -5.7010     4.9460 hc         1 LGG       0.023200
     92 H302        -8.3740    -5.5510     5.0180 hc         1 LGG       0.023200
     93 H311        -6.6080    -6.6500     7.2660 hc         1 LGG       0.016700
     94 H312        -7.5310    -7.6000     6.1400 hc         1 LGG       0.016700
     95 H271        -6.5040    -3.9510     3.4220 hc         1 LGG       0.060700
     96 H272        -5.3410    -3.3290     4.5830 hc         1 LGG       0.060700
     97 HN71        -5.1280    -0.1420     3.1430 hn         1 LGG       0.319000
     98 HN72        -4.5560    -1.2520     4.3420 hn         1 LGG       0.319000
     99 C15         -4.3750     2.1040     9.5620 c          1 LGG       0.593100
    100 C22         -3.3710    -3.4900    10.8970 c3         1 LGG      -0.052700
    101 C27         -6.3000    -3.1250     4.1060 c3         1 LGG      -0.160400
@<TRIPOS>BOND
     1     1     3 1   
     2     1    26 1   
     3     1    50 1   
     4     2    29 1   
     5     2    31 1   
     6     2    51 1   
     7     3     4 1   
     8     3    21 1   
     9     3    52 1   
    10     4    19 1   
    11     4    20 2   
    12     5     6 ar  
    13     5    17 ar  
    14     5    53 1   
    15     6     7 ar  
    16     6    54 1   
    17     7    16 ar  
    18     7    55 1   
    19     8    16 ar  
    20     8    17 ar  
    21     8    56 1   
    22     9    18 1   
    23     9    19 1   
    24     9    29 1   
    25     9    57 1   
    26    10    31 1   
    27    10    32 1   
    28    10    58 1   
    29    10    59 1   
    30    11    60 1   
    31    11    61 1   
    32    11    62 1   
    33    11   100 1   
    34    12    63 1   
    35    12    64 1   
    36    12    65 1   
    37    12   100 1   
    38    13    37 1   
    39    13    38 1   
    40    13    39 1   
    41    13    67 1   
    42    14    48 2   
    43    14    49 1   
    44    14   101 1   
    45    15    42 1   
    46    15    68 1   
    47    15    69 1   
    48    15   101 1   
    49    16    70 1   
    50    17    18 1   
    51    18    71 1   
    52    18    72 1   
    53    19    73 1   
    54    21    22 1   
    55    21    74 1   
    56    21    75 1   
    57    22    23 1   
    58    22    76 1   
    59    22    77 1   
    60    23    24 1   
    61    23    25 1   
    62    26    27 1   
    63    26    28 2   
    64    27    78 1   
    65    27    79 1   
    66    27    80 1   
    67    29    30 2   
    68    31    35 1   
    69    31    81 1   
    70    32    82 1   
    71    32    83 1   
    72    32    99 1   
    73    33    99 2   
    74    34    84 1   
    75    34    85 1   
    76    34    99 1   
    77    35    36 2   
    78    35    37 1   
    79    37    86 1   
    80    38    87 1   
    81    38    88 1   
    82    38   100 1   
    83    39    40 2   
    84    39    41 1   
    85    41    42 1   
    86    41    89 1   
    87    42    43 1   
    88    42    90 1   
    89    43    44 1   
    90    43    91 1   
    91    43    92 1   
    92    44    45 1   
    93    44    93 1   
    94    44    94 1   
    95    45    46 1   
    96    45    47 1   
    97    49    97 1   
    98    49    98 1   
    99    66   100 1   
   100    95   101 1   
   101    96   101 1   
@<TRIPOS>SUBSTRUCTURE
     1 LGG         1 TEMP              0 ****  ****    0 ROOT
