@<TRIPOS>MOLECULE
LGG
  101   101     1     0     0
SMALL
No Charge or Current Charge


@<TRIPOS>ATOM
      1 N1           0.9520     6.1510     3.8470 ns         1 LGG      -0.485900
      2 N3          -2.7860     0.5230     6.4130 ns         1 LGG      -0.466900
      3 C4           1.0240     4.9630     4.7290 c3         1 LGG       0.037700
      4 C5          -0.1140     3.9500     4.3830 c          1 LGG       0.623100
      5 C6          -0.8550     1.1160     1.7340 ca         1 LGG      -0.101500
      6 C7          -0.3750     1.5270     0.4780 ca         1 LGG      -0.113500
      7 C8           0.9910     1.8090     0.3060 ca         1 LGG      -0.123000
      8 C10          1.3960     1.2650     2.6440 ca         1 LGG      -0.101500
      9 C13         -1.1190     1.7030     5.0130 c3         1 LGG       0.037700
     10 C17         -4.5590     0.9860     8.1090 c3         1 LGG      -0.078400
     11 C20         -2.5480    -3.5160    10.5730 c3         1 LGG      -0.090600
     12 C21         -2.9210    -5.7300     9.3520 c3         1 LGG      -0.090600
     13 C24         -5.0020    -3.4840     8.4090 c3         1 LGG       0.035700
     14 C26         -6.5050    -2.7590     3.2130 c          1 LGG       0.601100
     15 C28         -7.9530    -3.6600     5.1060 c3         1 LGG      -0.088400
     16 C9           1.8760     1.6780     1.3890 ca         1 LGG      -0.113500
     17 C11          0.0270     0.9840     2.8240 ca         1 LGG      -0.063300
     18 C12         -0.4980     0.5450     4.1870 c3         1 LGG      -0.045100
     19 N2          -0.1590     2.8190     5.1730 ns         1 LGG      -0.471900
     20 O3          -0.9080     4.1280     3.4650 o          1 LGG      -0.618100
     21 C3           1.1240     5.3480     6.2400 c3         1 LGG      -0.065400
     22 C2           0.0930     6.3810     6.7840 c3         1 LGG      -0.199400
     23 C1          -1.3500     5.8540     6.7510 c          1 LGG       0.719000
     24 O1          -1.7230     5.1530     7.6780 o          1 LGG      -0.738500
     25 O2          -2.0500     6.1480     5.7960 o          1 LGG      -0.738500
     26 C33          1.9940     7.0020     3.5680 c          1 LGG       0.602100
     27 C34          1.6360     8.1680     2.6550 c3         1 LGG      -0.177100
     28 O11          3.1220     6.8350     4.0100 o          1 LGG      -0.639100
     29 C14         -1.5840     1.2000     6.4060 c          1 LGG       0.610100
     30 O4          -0.9390     1.3850     7.4300 o          1 LGG      -0.600100
     31 C18         -3.4620    -0.0000     7.6220 c3         1 LGG       0.030700
     32 C16         -4.0330     2.3760     8.5580 c3         1 LGG      -0.164400
     33 O5          -3.2250     1.5670    10.7050 o          1 LGG      -0.689100
     34 N4          -2.1560     3.3030     9.8230 nt         1 LGG      -0.599000
     35 C19         -4.0550    -1.4080     7.3360 c          1 LGG       0.601100
     36 O6          -4.1880    -1.8630     6.2050 o          1 LGG      -0.650100
     37 N5          -4.4240    -2.1250     8.4540 ns         1 LGG      -0.477900
     38 C23         -4.9430    -4.1820     9.7970 c3         1 LGG      -0.079400
     39 C25         -6.4610    -3.4150     7.8780 c          1 LGG       0.573100
     40 O7          -7.2020    -2.4540     8.0530 o          1 LGG      -0.617100
     41 N6          -6.8530    -4.5220     7.1550 ns         1 LGG      -0.468900
     42 C29         -8.0680    -4.6000     6.3400 c3         1 LGG       0.110700
     43 C30         -8.3730    -6.0700     5.9430 c3         1 LGG      -0.054400
     44 C31         -8.6330    -7.0440     7.1270 c3         1 LGG      -0.206400
     45 C32         -9.9090    -6.6580     7.8990 c          1 LGG       0.717000
     46 O9         -10.9790    -7.0800     7.4870 o          1 LGG      -0.743000
     47 O10         -9.8020    -5.9180     8.8640 o          1 LGG      -0.743000
     48 O8          -7.0930    -2.6430     2.1510 o          1 LGG      -0.648100
     49 N7          -5.6020    -1.8350     3.5980 nt         1 LGG      -0.613000
     50 HN1          0.0590     6.3650     3.4160 hn         1 LGG       0.338500
     51 HN3         -3.2340     0.3720     5.5160 hn         1 LGG       0.318500
     52 H4           1.9490     4.4280     4.4780 h1         1 LGG       0.059700
     53 H6          -1.9150     0.9050     1.8600 ha         1 LGG       0.113500
     54 H7          -1.0610     1.6290    -0.3590 ha         1 LGG       0.104000
     55 H8           1.3620     2.1280    -0.6650 ha         1 LGG       0.099000
     56 H10          2.0880     1.1690     3.4770 ha         1 LGG       0.113500
     57 H13         -2.0110     2.0730     4.4910 h1         1 LGG       0.081700
     58 H171        -5.2910     1.1280     7.3040 hc         1 LGG       0.062700
     59 H172        -5.1100     0.5370     8.9450 hc         1 LGG       0.062700
     60 H201        -1.6650    -3.9010    11.0980 hc         1 LGG       0.033367
     61 H202        -3.0080    -2.7490    11.2080 hc         1 LGG       0.033367
     62 H203        -2.2020    -3.0430     9.6460 hc         1 LGG       0.033367
     63 H211        -2.6350    -5.2970     8.3860 hc         1 LGG       0.033367
     64 H212        -2.0200    -6.1580     9.8080 hc         1 LGG       0.033367
     65 H213        -3.6280    -6.5480     9.1690 hc         1 LGG       0.033367
     66 H22         -3.7190    -5.1620    11.2460 hc         1 LGG       0.030700
     67 H24         -4.4290    -4.0760     7.6850 h1         1 LGG       0.065700
     68 H281        -8.8740    -3.7250     4.5140 hc         1 LGG       0.055200
     69 H282        -7.9030    -2.6240     5.4640 hc         1 LGG       0.055200
     70 H9           2.9330     1.8970     1.2570 ha         1 LGG       0.104000
     71 H121        -1.2480    -0.2450     4.0560 hc         1 LGG       0.067200
     72 H122         0.3130     0.0910     4.7700 hc         1 LGG       0.067200
     73 HN2          0.5110     2.7620     5.9320 hn         1 LGG       0.320500
     74 H31          1.0900     4.4460     6.8610 hc         1 LGG       0.045700
     75 H32          2.1230     5.7710     6.4050 hc         1 LGG       0.045700
     76 H21          0.3940     6.5360     7.8270 hc         1 LGG       0.031700
     77 H22A         0.1880     7.2860     6.1720 hc         1 LGG       0.031700
     78 H341         0.7990     8.7220     3.0950 hc         1 LGG       0.052033
     79 H342         2.4900     8.8220     2.4490 hc         1 LGG       0.052033
     80 H343         1.1940     7.7760     1.7310 hc         1 LGG       0.052033
     81 H18         -2.7200    -0.1380     8.4200 h1         1 LGG       0.104700
     82 H161        -4.8840     3.0140     8.8250 hc         1 LGG       0.071700
     83 H162        -3.5510     2.9170     7.7360 hc         1 LGG       0.071700
     84 HN41        -1.5220     3.3330    10.6050 hn         1 LGG       0.336500
     85 HN42        -2.0460     3.9480     9.0440 hn         1 LGG       0.336500
     86 HN5         -4.3060    -1.6740     9.3530 hn         1 LGG       0.346500
     87 H231        -5.5990    -5.0610     9.7640 hc         1 LGG       0.064700
     88 H232        -5.3820    -3.5170    10.5520 hc         1 LGG       0.064700
     89 HN6         -6.1850    -5.2800     7.0830 hn         1 LGG       0.304500
     90 H29         -8.9080    -4.2350     6.9490 h1         1 LGG       0.116700
     91 H301        -7.5350    -6.4630     5.3540 hc         1 LGG       0.023200
     92 H302        -9.2470    -6.0850     5.2810 hc         1 LGG       0.023200
     93 H311        -7.7530    -6.9950     7.7790 hc         1 LGG       0.016700
     94 H312        -8.7660    -8.0250     6.6560 hc         1 LGG       0.016700
     95 H271        -6.9050    -4.8420     3.6080 hc         1 LGG       0.060700
     96 H272        -5.8380    -4.0280     4.8050 hc         1 LGG       0.060700
     97 HN71        -5.4170    -1.0460     2.9990 hn         1 LGG       0.319000
     98 HN72        -5.1250    -1.9330     4.4890 hn         1 LGG       0.319000
     99 C15         -3.1060     2.3530     9.7790 c          1 LGG       0.593100
    100 C22         -3.5430    -4.6640    10.2830 c3         1 LGG      -0.052700
    101 C27         -6.7310    -3.9230     4.1790 c3         1 LGG      -0.160400
@<TRIPOS>BOND
     1     1     3 1   
     2     1    26 1   
     3     1    50 1   
     4     2    29 1   
     5     2    31 1   
     6     2    51 1   
     7     3     4 1   
     8     3    21 1   
     9     3    52 1   
    10     4    19 1   
    11     4    20 2   
    12     5     6 ar  
    13     5    17 ar  
    14     5    53 1   
    15     6     7 ar  
    16     6    54 1   
    17     7    16 ar  
    18     7    55 1   
    19     8    16 ar  
    20     8    17 ar  
    21     8    56 1   
    22     9    18 1   
    23     9    19 1   
    24     9    29 1   
    25     9    57 1   
    26    10    31 1   
    27    10    32 1   
    28    10    58 1   
    29    10    59 1   
    30    11    60 1   
    31    11    61 1   
    32    11    62 1   
    33    11   100 1   
    34    12    63 1   
    35    12    64 1   
    36    12    65 1   
    37    12   100 1   
    38    13    37 1   
    39    13    38 1   
    40    13    39 1   
    41    13    67 1   
    42    14    48 2   
    43    14    49 1   
    44    14   101 1   
    45    15    42 1   
    46    15    68 1   
    47    15    69 1   
    48    15   101 1   
    49    16    70 1   
    50    17    18 1   
    51    18    71 1   
    52    18    72 1   
    53    19    73 1   
    54    21    22 1   
    55    21    74 1   
    56    21    75 1   
    57    22    23 1   
    58    22    76 1   
    59    22    77 1   
    60    23    24 1   
    61    23    25 1   
    62    26    27 1   
    63    26    28 2   
    64    27    78 1   
    65    27    79 1   
    66    27    80 1   
    67    29    30 2   
    68    31    35 1   
    69    31    81 1   
    70    32    82 1   
    71    32    83 1   
    72    32    99 1   
    73    33    99 2   
    74    34    84 1   
    75    34    85 1   
    76    34    99 1   
    77    35    36 2   
    78    35    37 1   
    79    37    86 1   
    80    38    87 1   
    81    38    88 1   
    82    38   100 1   
    83    39    40 2   
    84    39    41 1   
    85    41    42 1   
    86    41    89 1   
    87    42    43 1   
    88    42    90 1   
    89    43    44 1   
    90    43    91 1   
    91    43    92 1   
    92    44    45 1   
    93    44    93 1   
    94    44    94 1   
    95    45    46 1   
    96    45    47 1   
    97    49    97 1   
    98    49    98 1   
    99    66   100 1   
   100    95   101 1   
   101    96   101 1   
@<TRIPOS>SUBSTRUCTURE
     1 LGG         1 TEMP              0 ****  ****    0 ROOT
