@<TRIPOS>MOLECULE
LGH
   53    56     1     0     0
SMALL
abcg2


@<TRIPOS>ATOM
      1 C1           2.0240     2.0560    -2.3000 ca         1 LGH      -0.158000
      2 C2           1.7380     3.0630    -1.3910 ca         1 LGH      -0.059000
      3 C3           2.7630     0.9610    -1.8800 ca         1 LGH      -0.046000
      4 C4          -3.0250     0.8790    -1.1240 ca         1 LGH      -0.179000
      5 C5          -4.1750     1.6280    -0.9740 ca         1 LGH      -0.015000
      6 C6           2.1780     2.9810    -0.0770 ca         1 LGH      -0.210000
      7 C7          -4.2110     1.0670     1.3750 ca         1 LGH      -0.020000
      8 C8           3.2230     0.8600    -0.5720 ca         1 LGH      -0.186500
      9 C9           3.5720    -1.6960    -0.3850 cc         1 LGH      -0.297600
     10 C10         -2.4310     0.2070    -0.0490 ca         1 LGH       0.342000
     11 C11         -4.7530     1.7280     0.2810 ca         1 LGH      -0.206200
     12 C12          2.9210     1.8790     0.3450 ca         1 LGH       0.170100
     13 C13         -3.0730     0.3100     1.2000 ca         1 LGH       0.070000
     14 C14          3.9650    -0.3420    -0.1700 cc         1 LGH       0.361500
     15 C15          4.6110    -2.4180     0.1100 cd         1 LGH       0.243300
     16 C17         -0.0790    -0.1070     0.4830 c6         1 LGH       0.177800
     17 C18         -0.9770    -1.0710    -1.5180 c6         1 LGH       0.177800
     18 C19          0.8870    -1.2660     0.6280 c6         1 LGH       0.096000
     19 C20         -0.0220    -2.2470    -1.3950 c6         1 LGH       0.096000
     20 C21          4.8760    -3.8690     0.2160 c3         1 LGH      -0.143400
     21 C22          3.0070     2.6670     2.5820 c3         1 LGH       0.146900
     22 N23          5.1280    -0.2870     0.4110 nd         1 LGH      -0.331300
     23 N24         -1.2900    -0.5590    -0.1960 nh         1 LGH      -0.786400
     24 N25          1.1720    -1.8550    -0.6680 n          1 LGH      -0.403800
     25 N26         -5.9520     2.5180     0.4600 no         1 LGH       0.700200
     26 O27         -6.4120     2.6130     1.5750 o          1 LGH      -0.399500
     27 O28          2.5570    -2.9740    -2.0630 o          1 LGH      -0.597100
     28 O29         -6.4360     3.0440    -0.5150 o          1 LGH      -0.399500
     29 O30          5.5230    -1.5780     0.5960 os         1 LGH      -0.069700
     30 O31          3.3510     1.7040     1.6030 os         1 LGH      -0.329100
     31 CL32        -2.4990    -0.6100     2.5460 cl         1 LGH      -0.173000
     32 H1           1.6780     2.1200    -3.3220 ha         1 LGH       0.122000
     33 H2           1.1630     3.9260    -1.6990 ha         1 LGH       0.116000
     34 H3           2.9980     0.1730    -2.5850 ha         1 LGH       0.130000
     35 H5          -4.5910     2.1410    -1.8280 ha         1 LGH       0.153000
     36 H6           1.9310     3.7790     0.6090 ha         1 LGH       0.122000
     37 H7          -4.6810     1.1140     2.3470 ha         1 LGH       0.165000
     38 H17         -0.3080     0.2860     1.4710 h1         1 LGH       0.054950
     39 H17A         0.3890     0.7010    -0.0930 h1         1 LGH       0.054950
     40 H18         -0.5250    -0.3010    -2.1610 h1         1 LGH       0.054950
     41 H18A        -1.8890    -1.4210    -2.0020 h1         1 LGH       0.054950
     42 H19          1.7990    -0.9270     1.1130 h1         1 LGH       0.066700
     43 H19A         0.4400    -2.0280     1.2740 h1         1 LGH       0.066700
     44 H20         -0.5190    -3.0700    -0.8720 h1         1 LGH       0.066700
     45 H20A         0.2510    -2.5950    -2.3880 h1         1 LGH       0.066700
     46 H21          5.7280    -4.1540    -0.4030 hc         1 LGH       0.070700
     47 H21A         5.1010    -4.1510     1.2450 hc         1 LGH       0.070700
     48 H21B         4.0120    -4.4370    -0.1170 hc         1 LGH       0.070700
     49 H22          3.4340     2.3180     3.5180 h1         1 LGH       0.044700
     50 H22A         3.4230     3.6500     2.3490 h1         1 LGH       0.044700
     51 H22B         1.9240     2.7600     2.7000 h1         1 LGH       0.044700
     52 C16          2.3900    -2.2350    -1.1020 c          1 LGH       0.655700
     53 H4          -2.5710     0.8290    -2.1030 ha         1 LGH       0.131000
@<TRIPOS>BOND
     1     1     2 ar  
     2     1     3 ar  
     3     1    32 1   
     4     2     6 ar  
     5     2    33 1   
     6     3     8 ar  
     7     3    34 1   
     8     4     5 ar  
     9     4    10 ar  
    10     4    53 1   
    11     5    11 ar  
    12     5    35 1   
    13     6    12 ar  
    14     6    36 1   
    15     7    11 ar  
    16     7    13 ar  
    17     7    37 1   
    18     8    12 ar  
    19     8    14 1   
    20     9    14 1   
    21     9    15 2   
    22     9    52 1   
    23    10    13 ar  
    24    10    23 1   
    25    11    25 1   
    26    12    30 1   
    27    13    31 1   
    28    14    22 2   
    29    15    20 1   
    30    15    29 1   
    31    16    18 1   
    32    16    23 1   
    33    16    38 1   
    34    16    39 1   
    35    17    19 1   
    36    17    23 1   
    37    17    40 1   
    38    17    41 1   
    39    18    24 1   
    40    18    42 1   
    41    18    43 1   
    42    19    24 1   
    43    19    44 1   
    44    19    45 1   
    45    20    46 1   
    46    20    47 1   
    47    20    48 1   
    48    21    30 1   
    49    21    49 1   
    50    21    50 1   
    51    21    51 1   
    52    22    29 1   
    53    24    52 1   
    54    25    26 1   
    55    25    28 1   
    56    27    52 2   
@<TRIPOS>SUBSTRUCTURE
     1 LGH         1 TEMP              0 ****  ****    0 ROOT
