@<TRIPOS>MOLECULE
LGH
   53    56     1     0     0
SMALL
No Charge or Current Charge


@<TRIPOS>ATOM
      1 C1           2.0250     1.8840    -2.1540 ca         1 LGH      -0.158000
      2 C2           1.9640     3.0460    -1.3760 ca         1 LGH      -0.059000
      3 C3           2.6670     0.7380    -1.6600 ca         1 LGH      -0.046000
      4 C4          -3.1430     1.1560    -1.0830 ca         1 LGH      -0.179000
      5 C5          -4.3760     1.8080    -0.9140 ca         1 LGH      -0.015000
      6 C6           2.5570     3.0640    -0.1060 ca         1 LGH      -0.210000
      7 C7          -4.6980     0.6270     1.1920 ca         1 LGH      -0.020000
      8 C8           3.2430     0.7250    -0.3680 ca         1 LGH      -0.186500
      9 C9           3.6260    -1.8300    -0.2210 cc         1 LGH      -0.297600
     10 C10         -2.6720     0.2380    -0.1270 ca         1 LGH       0.342000
     11 C11         -5.1680     1.5490     0.2270 ca         1 LGH      -0.206200
     12 C12          3.2080     1.9160     0.4020 ca         1 LGH       0.170100
     13 C13         -3.4630    -0.0220     1.0190 ca         1 LGH       0.070000
     14 C14          3.9450    -0.4850     0.1070 cc         1 LGH       0.361500
     15 C15          4.7070    -2.5520     0.1710 cd         1 LGH       0.243300
     16 C17         -0.2460     0.0510     0.4740 c6         1 LGH       0.177800
     17 C18         -1.0320    -0.9120    -1.6610 c6         1 LGH       0.177800
     18 C19          0.8150    -1.0750     0.5970 c6         1 LGH       0.096000
     19 C20          0.0370    -2.0360    -1.5610 c6         1 LGH       0.096000
     20 C21          4.9930    -4.0280     0.1220 c3         1 LGH      -0.143400
     21 C22          3.7390     3.0630     2.5330 c3         1 LGH       0.146900
     22 N23          5.1280    -0.3860     0.7000 nd         1 LGH      -0.331300
     23 N24         -1.4200    -0.3980    -0.3200 nh         1 LGH      -0.786400
     24 N25          1.2150    -1.6710    -0.7190 n          1 LGH      -0.403800
     25 N26         -6.4840     2.2390     0.4140 no         1 LGH       0.700200
     26 O27         -7.1400     1.9800     1.4310 o          1 LGH      -0.399500
     27 O28          2.4330    -3.4670    -1.4430 o          1 LGH      -0.597100
     28 O29         -6.8550     3.0370    -0.4570 o          1 LGH      -0.399500
     29 O30          5.6210    -1.7300     0.7640 os         1 LGH      -0.069700
     30 O31          3.7490     1.9090     1.6750 os         1 LGH      -0.329100
     31 Cl32        -2.9450    -1.1790     2.2550 cl         1 LGH      -0.173000
     32 H1           1.5820     1.8720    -3.1470 ha         1 LGH       0.122000
     33 H2           1.4660     3.9340    -1.7610 ha         1 LGH       0.116000
     34 H3           2.7340    -0.1350    -2.3050 ha         1 LGH       0.130000
     35 H5          -4.7070     2.5150    -1.6750 ha         1 LGH       0.153000
     36 H6           2.4960     3.9810     0.4720 ha         1 LGH       0.122000
     37 H7          -5.2840     0.4020     2.0810 ha         1 LGH       0.165000
     38 H17         -0.5530     0.3570     1.4840 h1         1 LGH       0.054950
     39 H17A         0.2160     0.9270    -0.0040 h1         1 LGH       0.054950
     40 H18         -0.6220    -0.0930    -2.2700 h1         1 LGH       0.054950
     41 H18A        -1.9110    -1.3090    -2.1900 h1         1 LGH       0.054950
     42 H19          1.6750    -0.6930     1.1580 h1         1 LGH       0.066700
     43 H19A         0.3840    -1.8770     1.2130 h1         1 LGH       0.066700
     44 H20         -0.4340    -2.9340    -1.1350 h1         1 LGH       0.066700
     45 H20A         0.3720    -2.2930    -2.5760 h1         1 LGH       0.066700
     46 H21          5.1040    -4.3700    -0.9130 hc         1 LGH       0.070700
     47 H21A         5.9190    -4.2700     0.6570 hc         1 LGH       0.070700
     48 H21B         4.1810    -4.6000     0.5850 hc         1 LGH       0.070700
     49 H22          4.2310     2.8320     3.4860 h1         1 LGH       0.044700
     50 H22A         4.2770     3.9000     2.0680 h1         1 LGH       0.044700
     51 H22B         2.7110     3.3800     2.7500 h1         1 LGH       0.044700
     52 C16          2.4150    -2.4000    -0.8460 c          1 LGH       0.655700
     53 H4          -2.5440     1.3780    -1.9610 ha         1 LGH       0.131000
@<TRIPOS>BOND
     1     1     2 ar  
     2     1     3 ar  
     3     1    32 1   
     4     2     6 ar  
     5     2    33 1   
     6     3     8 ar  
     7     3    34 1   
     8     4     5 ar  
     9     4    10 ar  
    10     4    53 1   
    11     5    11 ar  
    12     5    35 1   
    13     6    12 ar  
    14     6    36 1   
    15     7    11 ar  
    16     7    13 ar  
    17     7    37 1   
    18     8    12 ar  
    19     8    14 1   
    20     9    14 1   
    21     9    15 2   
    22     9    52 1   
    23    10    13 ar  
    24    10    23 1   
    25    11    25 1   
    26    12    30 1   
    27    13    31 1   
    28    14    22 2   
    29    15    20 1   
    30    15    29 1   
    31    16    18 1   
    32    16    23 1   
    33    16    38 1   
    34    16    39 1   
    35    17    19 1   
    36    17    23 1   
    37    17    40 1   
    38    17    41 1   
    39    18    24 1   
    40    18    42 1   
    41    18    43 1   
    42    19    24 1   
    43    19    44 1   
    44    19    45 1   
    45    20    46 1   
    46    20    47 1   
    47    20    48 1   
    48    21    30 1   
    49    21    49 1   
    50    21    50 1   
    51    21    51 1   
    52    22    29 1   
    53    24    52 1   
    54    25    26 1   
    55    25    28 1   
    56    27    52 2   
@<TRIPOS>SUBSTRUCTURE
     1 LGH         1 TEMP              0 ****  ****    0 ROOT
