@<TRIPOS>MOLECULE
LGJ
   59    63     1     0     0
SMALL
abcg2


@<TRIPOS>ATOM
      1 C1          -8.1900     0.7720     1.8540 ca         1 LGJ      -0.058000
      2 C2          -8.8450    -0.3010     1.2720 ca         1 LGJ      -0.122000
      3 C3           2.6930    -2.0130    -2.1070 ca         1 LGJ      -0.096000
      4 C4          -6.8350     0.9630     1.6280 ca         1 LGJ      -0.119000
      5 C5          -3.6690    -0.3610     1.2820 ca         1 LGJ      -0.046000
      6 C6           3.7520    -2.7360    -1.5790 ca         1 LGJ      -0.081000
      7 C7           2.4080    -0.7420    -1.6400 ca         1 LGJ      -0.078000
      8 C8          -2.3290    -0.0240     1.1670 ca         1 LGJ      -0.107000
      9 C9          -8.1420    -1.1740     0.4560 ca         1 LGJ      -0.023000
     10 C10         -4.2800     1.4910    -0.1050 ca         1 LGJ      -0.111000
     11 C11          4.2480    -0.9170    -0.0840 ca         1 LGJ      -0.039000
     12 C12          1.9780     2.9430     0.5620 cc         1 LGJ      -0.141000
     13 C13         -4.6570     0.3810     0.6470 cp         1 LGJ      -0.090000
     14 C14         -6.1010     0.0900     0.8300 cp         1 LGJ       0.054000
     15 C15          4.5410    -2.1900    -0.5700 ca         1 LGJ      -0.101900
     16 C16          3.1880    -0.2130    -0.6210 ca         1 LGJ      -0.000200
     17 C17         -1.9380     1.0710     0.3980 ca         1 LGJ      -0.047000
     18 C18         -2.9470     1.8050    -0.2220 ca         1 LGJ       0.107000
     19 C19         -6.7830    -0.9810     0.2410 ca         1 LGJ      -0.240500
     20 C20          1.7380     1.6220     0.2640 cd         1 LGJ      -0.220600
     21 C21          3.3450     3.0990     0.3100 cc         1 LGJ       0.125300
     22 C22          5.6690    -2.9220    -0.0040 cc         1 LGJ       0.409500
     23 C23          7.1280    -4.5620     0.3940 c          1 LGJ       0.564000
     24 C24          0.5130     0.8110     0.4690 c          1 LGJ       0.644700
     25 C25         -5.4320    -1.2170    -2.2310 c3         1 LGJ      -0.335100
     26 C26          4.1720     4.3180     0.5120 c3         1 LGJ       0.297700
     27 N27          3.8970     1.9830    -0.1150 nd         1 LGJ      -0.434800
     28 N28          6.4830    -2.4410     0.8760 nd         1 LGJ      -0.472300
     29 N29          2.9220     1.0920    -0.1340 na         1 LGJ       0.276000
     30 N30          6.0140    -4.2020    -0.3310 ns         1 LGJ      -0.535900
     31 N31          7.3650    -3.4340     1.1180 ns         1 LGJ      -0.367400
     32 N32         -0.6240     1.5080     0.2300 ns         1 LGJ      -0.135000
     33 O33          7.7370    -5.6160     0.3830 o          1 LGJ      -0.554000
     34 O34          0.5690    -0.3440     0.8360 o          1 LGJ      -0.547100
     35 O35         -4.8060    -2.7180    -0.1480 o          1 LGJ      -0.524500
     36 O36         -6.9910    -3.1010    -1.2950 o          1 LGJ      -0.524500
     37 F37         -2.5910     2.8730    -0.9550 f          1 LGJ      -0.183000
     38 F38          4.6730     4.3770     1.7530 f          1 LGJ      -0.104000
     39 F39          5.2040     4.3640    -0.3310 f          1 LGJ      -0.104000
     40 F40          3.4420     5.4230     0.3340 f          1 LGJ      -0.104000
     41 S41         -5.9720    -2.1630    -0.8270 sy         1 LGJ       1.054500
     42 H1          -8.7310     1.4630     2.4860 ha         1 LGJ       0.121000
     43 H2          -9.9010    -0.4600     1.4420 ha         1 LGJ       0.124000
     44 H4          -6.3270     1.8020     2.0860 ha         1 LGJ       0.123000
     45 H5          -3.9390    -1.2080     1.8950 ha         1 LGJ       0.147000
     46 H6           3.9520    -3.7230    -1.9760 ha         1 LGJ       0.117000
     47 H7           1.6020    -0.1660    -2.0750 ha         1 LGJ       0.129000
     48 H8          -1.5970    -0.6160     1.6910 ha         1 LGJ       0.156000
     49 H9          -8.6580    -2.0000    -0.0120 ha         1 LGJ       0.149000
     50 H10         -5.0170     2.1020    -0.6110 ha         1 LGJ       0.138000
     51 H11          4.8410    -0.4830     0.7100 ha         1 LGJ       0.159000
     52 H12          1.2800     3.6700     0.9440 ha         1 LGJ       0.165000
     53 H25         -4.6910    -0.4800    -1.9330 h1         1 LGJ       0.104033
     54 H25A        -4.9850    -1.9250    -2.9290 h1         1 LGJ       0.104033
     55 H25B        -6.2900    -0.7310    -2.6880 h1         1 LGJ       0.104033
     56 HN30         5.5530    -4.8170    -0.9820 hn         1 LGJ       0.476000
     57 HN31         8.1200    -3.2970     1.7710 hn         1 LGJ       0.494000
     58 HN32        -0.5120     2.4170    -0.1940 hn         1 LGJ       0.174000
     59 H3           2.0950    -2.4410    -2.9000 ha         1 LGJ       0.129000
@<TRIPOS>BOND
     1     1     2 ar  
     2     1     4 ar  
     3     1    42 1   
     4     2     9 ar  
     5     2    43 1   
     6     3     6 ar  
     7     3     7 ar  
     8     3    59 1   
     9     4    14 ar  
    10     4    44 1   
    11     5     8 ar  
    12     5    13 ar  
    13     5    45 1   
    14     6    15 ar  
    15     6    46 1   
    16     7    16 ar  
    17     7    47 1   
    18     8    17 ar  
    19     8    48 1   
    20     9    19 ar  
    21     9    49 1   
    22    10    13 ar  
    23    10    18 ar  
    24    10    50 1   
    25    11    15 ar  
    26    11    16 ar  
    27    11    51 1   
    28    12    20 2   
    29    12    21 1   
    30    12    52 1   
    31    13    14 1   
    32    14    19 ar  
    33    15    22 1   
    34    16    29 1   
    35    17    18 ar  
    36    17    32 1   
    37    18    37 1   
    38    19    41 1   
    39    20    24 1   
    40    20    29 1   
    41    21    26 1   
    42    21    27 2   
    43    22    28 2   
    44    22    30 1   
    45    23    30 1   
    46    23    31 1   
    47    23    33 2   
    48    24    32 1   
    49    24    34 2   
    50    25    41 1   
    51    25    53 1   
    52    25    54 1   
    53    25    55 1   
    54    26    38 1   
    55    26    39 1   
    56    26    40 1   
    57    27    29 1   
    58    28    31 1   
    59    30    56 1   
    60    31    57 1   
    61    32    58 1   
    62    35    41 2   
    63    36    41 2   
@<TRIPOS>SUBSTRUCTURE
     1 LGJ         1 TEMP              0 ****  ****    0 ROOT
