@<TRIPOS>MOLECULE
LGJ
   59    63     1     0     0
SMALL
No Charge or Current Charge


@<TRIPOS>ATOM
      1 C1          -7.3650    -0.8720     2.9830 ca         1 LGJ      -0.058000
      2 C2          -8.3540    -1.2490     2.0640 ca         1 LGJ      -0.122000
      3 C3           4.0480    -1.9970    -2.6160 ca         1 LGJ      -0.096000
      4 C4          -6.0860    -0.5110     2.5290 ca         1 LGJ      -0.119000
      5 C5          -3.3580    -1.0610     0.5420 ca         1 LGJ      -0.046000
      6 C6           4.5260    -2.7380    -1.5220 ca         1 LGJ      -0.081000
      7 C7           3.6250    -0.6700    -2.4410 ca         1 LGJ      -0.078000
      8 C8          -2.0410    -0.6680     0.2430 ca         1 LGJ      -0.107000
      9 C9          -8.0660    -1.2660     0.6900 ca         1 LGJ      -0.023000
     10 C10         -4.0120     1.2620     0.7730 ca         1 LGJ      -0.111000
     11 C11          4.1600    -0.8220    -0.0710 ca         1 LGJ      -0.039000
     12 C12          1.8980     2.8470    -0.5550 cc         1 LGJ      -0.141000
     13 C13         -4.3710    -0.1050     0.7850 cp         1 LGJ      -0.090000
     14 C14         -5.7540    -0.5210     1.1530 cp         1 LGJ       0.054000
     15 C15          4.5880    -2.1590    -0.2330 ca         1 LGJ      -0.101900
     16 C16          3.6750    -0.0810    -1.1650 ca         1 LGJ      -0.000200
     17 C17         -1.6980     0.7030     0.1990 ca         1 LGJ      -0.047000
     18 C18         -2.6990     1.6570     0.4740 ca         1 LGJ       0.107000
     19 C19         -6.7790    -0.9090     0.2340 ca         1 LGJ      -0.240500
     20 C20          1.9270     1.4780    -0.6440 cd         1 LGJ      -0.220600
     21 C21          3.1970     3.3230    -0.8450 cc         1 LGJ       0.125300
     22 C22          5.0860    -2.9110     0.9270 cc         1 LGJ       0.409500
     23 C23          5.9240    -4.6800     2.0640 c          1 LGJ       0.564000
     24 C24          0.7970     0.5300    -0.4240 c          1 LGJ       0.644700
     25 C25         -6.2280     0.8340    -1.9610 c3         1 LGJ      -0.335100
     26 C26          3.5310     4.8060    -0.8370 c3         1 LGJ       0.297700
     27 N27          4.0600     2.3570    -1.1140 nd         1 LGJ      -0.434800
     28 N28          5.2030    -2.4810     2.1800 nd         1 LGJ      -0.472300
     29 N29          3.2620     1.2380    -0.9870 na         1 LGJ       0.276000
     30 N30          5.5160    -4.2150     0.8670 ns         1 LGJ      -0.535900
     31 N31          5.7120    -3.5790     2.8320 ns         1 LGJ      -0.367400
     32 N32         -0.3860     1.1780    -0.0970 ns         1 LGJ      -0.135000
     33 O33          6.3590    -5.7750     2.3630 o          1 LGJ      -0.554000
     34 O34          0.9050    -0.6850    -0.5230 o          1 LGJ      -0.547100
     35 O35         -5.1080    -1.5290    -1.7890 o          1 LGJ      -0.524500
     36 O36         -7.6050    -1.3710    -2.2660 o          1 LGJ      -0.524500
     37 F37         -2.3990     2.9760     0.4560 f          1 LGJ      -0.183000
     38 F38          3.3000     5.3570     0.3770 f          1 LGJ      -0.104000
     39 F39          4.8280     5.0480    -1.1420 f          1 LGJ      -0.104000
     40 F40          2.7800     5.4860    -1.7330 f          1 LGJ      -0.104000
     41 S41         -6.4130    -0.9020    -1.5480 sy         1 LGJ       1.054500
     42 H1          -7.5890    -0.8570     4.0480 ha         1 LGJ       0.121000
     43 H2          -9.3460    -1.5260     2.4140 ha         1 LGJ       0.124000
     44 H4          -5.3320    -0.2170     3.2550 ha         1 LGJ       0.123000
     45 H5          -3.6030    -2.1210     0.5800 ha         1 LGJ       0.147000
     46 H6           4.8460    -3.7630    -1.6900 ha         1 LGJ       0.117000
     47 H7           3.2560    -0.1010    -3.2920 ha         1 LGJ       0.129000
     48 H8          -1.3070    -1.4450     0.0540 ha         1 LGJ       0.156000
     49 H9          -8.8470    -1.5550    -0.0120 ha         1 LGJ       0.149000
     50 H10         -4.7610     2.0190     0.9920 ha         1 LGJ       0.138000
     51 H11          4.2000    -0.3520     0.9100 ha         1 LGJ       0.159000
     52 H12          1.0550     3.4870    -0.3090 ha         1 LGJ       0.165000
     53 H25         -5.3350     1.2220    -1.4660 h1         1 LGJ       0.104033
     54 H25A        -6.1220     0.9110    -3.0480 h1         1 LGJ       0.104033
     55 H25B        -7.1240     1.3630    -1.6230 h1         1 LGJ       0.104033
     56 HN30         5.5380    -4.7920     0.0390 hn         1 LGJ       0.476000
     57 HN31         5.9300    -3.6050     3.8310 hn         1 LGJ       0.494000
     58 HN32        -0.3060     2.1840    -0.0610 hn         1 LGJ       0.174000
     59 H3           4.0060    -2.4530    -3.6040 ha         1 LGJ       0.129000
@<TRIPOS>BOND
     1     1     2 ar  
     2     1     4 ar  
     3     1    42 1   
     4     2     9 ar  
     5     2    43 1   
     6     3     6 ar  
     7     3     7 ar  
     8     3    59 1   
     9     4    14 ar  
    10     4    44 1   
    11     5     8 ar  
    12     5    13 ar  
    13     5    45 1   
    14     6    15 ar  
    15     6    46 1   
    16     7    16 ar  
    17     7    47 1   
    18     8    17 ar  
    19     8    48 1   
    20     9    19 ar  
    21     9    49 1   
    22    10    13 ar  
    23    10    18 ar  
    24    10    50 1   
    25    11    15 ar  
    26    11    16 ar  
    27    11    51 1   
    28    12    20 2   
    29    12    21 1   
    30    12    52 1   
    31    13    14 1   
    32    14    19 ar  
    33    15    22 1   
    34    16    29 1   
    35    17    18 ar  
    36    17    32 1   
    37    18    37 1   
    38    19    41 1   
    39    20    24 1   
    40    20    29 1   
    41    21    26 1   
    42    21    27 2   
    43    22    28 2   
    44    22    30 1   
    45    23    30 1   
    46    23    31 1   
    47    23    33 2   
    48    24    32 1   
    49    24    34 2   
    50    25    41 1   
    51    25    53 1   
    52    25    54 1   
    53    25    55 1   
    54    26    38 1   
    55    26    39 1   
    56    26    40 1   
    57    27    29 1   
    58    28    31 1   
    59    30    56 1   
    60    31    57 1   
    61    32    58 1   
    62    35    41 2   
    63    36    41 2   
@<TRIPOS>SUBSTRUCTURE
     1 LGJ         1 TEMP              0 ****  ****    0 ROOT
