@<TRIPOS>MOLECULE
LGK
   63    68     1     0     0
SMALL
No Charge or Current Charge


@<TRIPOS>ATOM
      1 C1          -6.2940    -4.1660    -0.3490 ca         1 LGK      -0.058000
      2 C2          -7.4670    -3.8250     0.3390 ca         1 LGK      -0.125000
      3 C3           4.1700    -1.6600    -2.7030 ca         1 LGK      -0.100000
      4 C4          -5.2420    -3.2400    -0.4430 ca         1 LGK      -0.119000
      5 C5          -2.9760    -1.2850     0.7470 ca         1 LGK      -0.066500
      6 C6          -4.1080    -0.0480    -0.9990 ca         1 LGK      -0.066500
      7 C7           4.6280    -2.4130    -1.6080 ca         1 LGK      -0.082000
      8 C8           3.6770    -0.3600    -2.5100 ca         1 LGK      -0.064000
      9 C9          -1.8370    -0.4800     0.5780 ca         1 LGK      -0.114000
     10 C10         -2.9680     0.7580    -1.1660 ca         1 LGK      -0.114000
     11 C11         -7.5900    -2.5600     0.9350 ca         1 LGK      -0.024000
     12 C12          4.1010    -0.5630    -0.1210 ca         1 LGK      -0.043000
     13 C13         -4.1460    -1.0570    -0.0120 cp         1 LGK      -0.096000
     14 C14         -5.3290    -1.9520     0.1370 cp         1 LGK       0.056000
     15 C15          4.5990    -1.8730    -0.3010 ca         1 LGK      -0.106900
     16 C16          1.6590     2.9870    -0.6950 cc         1 LGK      -0.111300
     17 C17          3.6380     0.1910    -1.2170 ca         1 LGK       0.000800
     18 C18         -1.8420     0.6000    -0.3290 ca         1 LGK      -0.034000
     19 C19         -6.5350    -1.6270     0.8350 ca         1 LGK      -0.242500
     20 C20          1.7820     1.6460    -0.8400 cd         1 LGK      -0.218600
     21 C21          2.9530     3.5590    -0.8030 cc         1 LGK       0.132300
     22 C22          5.0720    -2.6390     0.8600 cc         1 LGK       0.411500
     23 C23          0.6480     0.6940    -0.7420 c          1 LGK       0.608600
     24 C24          5.9340    -4.4040     1.9850 c          1 LGK       0.564000
     25 C25          0.3500     3.6740    -0.4290 c6         1 LGK      -0.017100
     26 C26         -0.7730     2.7690    -0.9890 c6         1 LGK       0.109000
     27 C27         -5.4480    -0.0160     2.9360 c3         1 LGK      -0.334100
     28 C28          3.2210     5.0530    -0.6850 c3         1 LGK       0.297700
     29 N29          3.8940     2.6470    -1.0120 nd         1 LGK      -0.435800
     30 N30          5.1050    -2.2450     2.1300 nd         1 LGK      -0.474300
     31 N31          3.1520     1.4800    -1.0200 na         1 LGK       0.281000
     32 N32          5.5650    -3.9190     0.7830 ns         1 LGK      -0.536900
     33 N33          5.6320    -3.3390     2.7740 ns         1 LGK      -0.367400
     34 N34         -0.6260     1.3260    -0.6160 n          1 LGK      -0.236400
     35 O36          6.4040    -5.4880     2.2720 o          1 LGK      -0.555000
     36 O37         -6.2750     1.0500     0.6890 o          1 LGK      -0.526500
     37 O38         -7.9870     0.0730     2.3010 o          1 LGK      -0.526500
     38 F39          2.7230     5.5610     0.4670 f          1 LGK      -0.104667
     39 F40          4.5440     5.3430    -0.7010 f          1 LGK      -0.104667
     40 F41          2.6550     5.7400    -1.7030 f          1 LGK      -0.104667
     41 S42         -6.6800     0.0010     1.6320 sy         1 LGK       1.053500
     42 H1          -6.1980    -5.1470    -0.8090 ha         1 LGK       0.120000
     43 H2          -8.2810    -4.5430     0.4150 ha         1 LGK       0.123000
     44 H3           4.1980    -2.0850    -3.7040 ha         1 LGK       0.128000
     45 H4          -4.3380    -3.5210    -0.9780 ha         1 LGK       0.125000
     46 H5          -2.9540    -2.0980     1.4700 ha         1 LGK       0.130000
     47 H6          -4.9700     0.1040    -1.6450 ha         1 LGK       0.130000
     48 H7           5.0030    -3.4160    -1.7900 ha         1 LGK       0.116000
     49 H8           3.3240     0.2190    -3.3610 ha         1 LGK       0.133000
     50 H9          -0.9540    -0.6860     1.1790 ha         1 LGK       0.128000
     51 H10         -2.9700     1.5050    -1.9560 ha         1 LGK       0.128000
     52 H11         -8.5050    -2.3130     1.4710 ha         1 LGK       0.148000
     53 H12          4.0680    -0.1230     0.8740 ha         1 LGK       0.157000
     54 H25          0.2050     3.8180     0.6500 hc         1 LGK       0.075700
     55 H25A         0.2950     4.6660    -0.8970 hc         1 LGK       0.075700
     56 H26         -1.7420     3.1500    -0.6360 h1         1 LGK       0.059700
     57 H26A        -0.7730     2.8400    -2.0860 h1         1 LGK       0.059700
     58 H27         -4.4540    -0.0200     2.4830 h1         1 LGK       0.104033
     59 H27A        -5.5840     0.8880     3.5380 h1         1 LGK       0.104033
     60 H27B        -5.6050    -0.9130     3.5440 h1         1 LGK       0.104033
     61 HN32         5.6550    -4.4660    -0.0600 hn         1 LGK       0.476000
     62 HN33         5.8010    -3.3880     3.7810 hn         1 LGK       0.494000
     63 O35          0.7920    -0.5220    -0.7600 o          1 LGK      -0.526000
@<TRIPOS>BOND
     1     1     2 ar  
     2     1     4 ar  
     3     1    42 1   
     4     2    11 ar  
     5     2    43 1   
     6     3     7 ar  
     7     3     8 ar  
     8     3    44 1   
     9     4    14 ar  
    10     4    45 1   
    11     5     9 ar  
    12     5    13 ar  
    13     5    46 1   
    14     6    10 ar  
    15     6    13 ar  
    16     6    47 1   
    17     7    15 ar  
    18     7    48 1   
    19     8    17 ar  
    20     8    49 1   
    21     9    18 ar  
    22     9    50 1   
    23    10    18 ar  
    24    10    51 1   
    25    11    19 ar  
    26    11    52 1   
    27    12    15 ar  
    28    12    17 ar  
    29    12    53 1   
    30    13    14 1   
    31    14    19 ar  
    32    15    22 1   
    33    16    20 2   
    34    16    21 1   
    35    16    25 1   
    36    17    31 1   
    37    18    34 1   
    38    19    41 1   
    39    20    23 1   
    40    20    31 1   
    41    21    28 1   
    42    21    29 2   
    43    22    30 2   
    44    22    32 1   
    45    23    34 1   
    46    23    63 2   
    47    24    32 1   
    48    24    33 1   
    49    24    35 2   
    50    25    26 1   
    51    25    54 1   
    52    25    55 1   
    53    26    34 1   
    54    26    56 1   
    55    26    57 1   
    56    27    41 1   
    57    27    58 1   
    58    27    59 1   
    59    27    60 1   
    60    28    38 1   
    61    28    39 1   
    62    28    40 1   
    63    29    31 1   
    64    30    33 1   
    65    32    61 1   
    66    33    62 1   
    67    36    41 2   
    68    37    41 2   
@<TRIPOS>SUBSTRUCTURE
     1 LGK         1 TEMP              0 ****  ****    0 ROOT
