@<TRIPOS>MOLECULE
LGK
   63    68     1     0     0
SMALL
abcg2


@<TRIPOS>ATOM
      1 C1          -6.5990    -4.0700     0.0340 ca         1 LGK      -0.058000
      2 C2          -7.8510    -3.5430     0.3070 ca         1 LGK      -0.125000
      3 C3           3.5830    -2.1410    -2.3590 ca         1 LGK      -0.100000
      4 C4          -5.4970    -3.2320    -0.0540 ca         1 LGK      -0.119000
      5 C5          -3.4160    -1.1190     1.0170 ca         1 LGK      -0.066500
      6 C6          -4.1140    -0.2590    -1.1090 ca         1 LGK      -0.066500
      7 C7           4.6320    -2.6320    -1.5940 ca         1 LGK      -0.082000
      8 C8           2.9900    -0.9300    -2.0450 ca         1 LGK      -0.064000
      9 C9          -2.2280    -0.4100     0.9230 ca         1 LGK      -0.114000
     10 C10         -2.9190     0.4330    -1.2180 ca         1 LGK      -0.114000
     11 C11         -7.9940    -2.1780     0.4990 ca         1 LGK      -0.024000
     12 C12          4.4990    -0.6940    -0.1730 ca         1 LGK      -0.043000
     13 C13         -4.3770    -1.0410     0.0110 cp         1 LGK      -0.096000
     14 C14         -5.6140    -1.8550     0.1180 cp         1 LGK       0.056000
     15 C15          5.1000    -1.9090    -0.5000 ca         1 LGK      -0.106900
     16 C16          1.5110     2.6920    -0.1740 cc         1 LGK      -0.111300
     17 C17          3.4540    -0.2240    -0.9440 ca         1 LGK       0.000800
     18 C18         -1.9760     0.3690    -0.1990 ca         1 LGK      -0.034000
     19 C19         -6.8870    -1.3440     0.4030 ca         1 LGK      -0.242500
     20 C20          1.5660     1.3500    -0.4470 cd         1 LGK      -0.218600
     21 C21          2.8530     3.0900    -0.1840 cc         1 LGK       0.132300
     22 C22          6.2070    -2.3930     0.3170 cc         1 LGK       0.411500
     23 C23          0.4110     0.4420    -0.3560 c          1 LGK       0.608600
     24 C24          7.7920    -3.7320     1.1380 c          1 LGK       0.564000
     25 C25          0.2050     3.3540     0.0850 c6         1 LGK      -0.017100
     26 C26         -0.8670     2.5420    -0.6270 c6         1 LGK       0.109000
     27 C27         -6.2840     0.7840     2.1610 c3         1 LGK      -0.334100
     28 C28          3.3880     4.4550     0.0540 c3         1 LGK       0.297700
     29 N29          3.6560     2.0790    -0.4570 nd         1 LGK      -0.435800
     30 N30          6.7820    -1.7040     1.2470 nd         1 LGK      -0.474300
     31 N31          2.8740     1.0260    -0.6100 na         1 LGK       0.281000
     32 N32          6.7810    -3.6270     0.2070 ns         1 LGK      -0.536900
     33 N33          7.7400    -2.5150     1.7440 ns         1 LGK      -0.367400
     34 N34         -0.7740     1.1110    -0.3020 n          1 LGK      -0.236400
     35 O36          8.5320    -4.6740     1.3550 o          1 LGK      -0.555000
     36 O37         -6.6080     1.1650    -0.4330 o          1 LGK      -0.526500
     37 O38         -8.6010     0.5700     0.9530 o          1 LGK      -0.526500
     38 F39          3.0030     4.9200     1.2500 f          1 LGK      -0.104667
     39 F40          4.7170     4.4870     0.0120 f          1 LGK      -0.104667
     40 F41          2.9300     5.3230    -0.8570 f          1 LGK      -0.104667
     41 S42         -7.1760     0.3990     0.6720 sy         1 LGK       1.053500
     42 H1          -6.4750    -5.1350    -0.1100 ha         1 LGK       0.120000
     43 H2          -8.7150    -4.1890     0.3770 ha         1 LGK       0.123000
     44 H3           3.2340    -2.7030    -3.2140 ha         1 LGK       0.128000
     45 H4          -4.5220    -3.6480    -0.2720 ha         1 LGK       0.125000
     46 H5          -3.6030    -1.7260     1.8940 ha         1 LGK       0.130000
     47 H6          -4.8340    -0.2060    -1.9130 ha         1 LGK       0.130000
     48 H7           5.0800    -3.5760    -1.8730 ha         1 LGK       0.116000
     49 H8           2.1900    -0.5370    -2.6560 ha         1 LGK       0.133000
     50 H9          -1.5090    -0.4570     1.7290 ha         1 LGK       0.128000
     51 H10         -2.7220     1.0220    -2.1050 ha         1 LGK       0.128000
     52 H11         -8.9680    -1.7720     0.7300 ha         1 LGK       0.148000
     53 H12          4.8400    -0.1280     0.6830 ha         1 LGK       0.157000
     54 H25          0.0080     3.3990     1.1590 hc         1 LGK       0.075700
     55 H25A         0.1800     4.3760    -0.2920 hc         1 LGK       0.075700
     56 H26         -1.8540     2.8840    -0.3240 h1         1 LGK       0.059700
     57 H26A        -0.7800     2.6860    -1.7070 h1         1 LGK       0.059700
     58 H27         -5.2210     0.6090     2.0210 h1         1 LGK       0.104033
     59 H27A        -6.4620     1.8390     2.3680 h1         1 LGK       0.104033
     60 H27B        -6.6680     0.1740     2.9750 h1         1 LGK       0.104033
     61 HN32         6.5170    -4.3750    -0.4140 hn         1 LGK       0.476000
     62 HN33         8.3360    -2.1970     2.4910 hn         1 LGK       0.494000
     63 O35          0.5200    -0.7670    -0.2810 o          1 LGK      -0.526000
@<TRIPOS>BOND
     1     1     2 ar  
     2     1     4 ar  
     3     1    42 1   
     4     2    11 ar  
     5     2    43 1   
     6     3     7 ar  
     7     3     8 ar  
     8     3    44 1   
     9     4    14 ar  
    10     4    45 1   
    11     5     9 ar  
    12     5    13 ar  
    13     5    46 1   
    14     6    10 ar  
    15     6    13 ar  
    16     6    47 1   
    17     7    15 ar  
    18     7    48 1   
    19     8    17 ar  
    20     8    49 1   
    21     9    18 ar  
    22     9    50 1   
    23    10    18 ar  
    24    10    51 1   
    25    11    19 ar  
    26    11    52 1   
    27    12    15 ar  
    28    12    17 ar  
    29    12    53 1   
    30    13    14 1   
    31    14    19 ar  
    32    15    22 1   
    33    16    20 2   
    34    16    21 1   
    35    16    25 1   
    36    17    31 1   
    37    18    34 1   
    38    19    41 1   
    39    20    23 1   
    40    20    31 1   
    41    21    28 1   
    42    21    29 2   
    43    22    30 2   
    44    22    32 1   
    45    23    34 1   
    46    23    63 2   
    47    24    32 1   
    48    24    33 1   
    49    24    35 2   
    50    25    26 1   
    51    25    54 1   
    52    25    55 1   
    53    26    34 1   
    54    26    56 1   
    55    26    57 1   
    56    27    41 1   
    57    27    58 1   
    58    27    59 1   
    59    27    60 1   
    60    28    38 1   
    61    28    39 1   
    62    28    40 1   
    63    29    31 1   
    64    30    33 1   
    65    32    61 1   
    66    33    62 1   
    67    36    41 2   
    68    37    41 2   
@<TRIPOS>SUBSTRUCTURE
     1 LGK         1 TEMP              0 ****  ****    0 ROOT
