@<TRIPOS>MOLECULE
LGL
   72    78     1     0     0
SMALL
bcc


@<TRIPOS>ATOM
      1 C1          -6.8690    -4.4650    -0.0860 ca         1 LGL      -0.127000
      2 C2          -8.0940    -3.8220    -0.1690 ca         1 LGL      -0.126000
      3 C3           3.8370    -1.9850    -2.2680 ca         1 LGL      -0.118000
      4 C4          -5.6990    -3.7220    -0.1650 ca         1 LGL      -0.121000
      5 C5          -3.5840    -1.5560     0.6620 ca         1 LGL      -0.103500
      6 C6          -4.1170    -0.8870    -1.5730 ca         1 LGL      -0.103500
      7 C7           4.8560    -2.3870    -1.4160 ca         1 LGL      -0.100000
      8 C8          -8.1360    -2.4420    -0.3200 ca         1 LGL      -0.128000
      9 C9           3.1000    -0.8450    -1.9960 ca         1 LGL      -0.080000
     10 C10         -2.4310    -0.7890     0.6240 ca         1 LGL      -0.124000
     11 C11         -2.9570    -0.1310    -1.6260 ca         1 LGL      -0.124000
     12 C12          4.4020    -0.5020     0.0100 ca         1 LGL      -0.061000
     13 C13         -4.4590    -1.5870    -0.4210 cp         1 LGL      -0.002000
     14 C14         -5.7320    -2.3410    -0.3350 cp         1 LGL      -0.021000
     15 C15          5.1460    -1.6460    -0.2740 ca         1 LGL      -0.107900
     16 C16          1.1150     2.5790    -0.2040 cc         1 LGL      -0.180600
     17 C17         -6.9720    -1.6860    -0.4060 ca         1 LGL      -0.072300
     18 C18          3.3910    -0.1190    -0.8500 ca         1 LGL       0.002800
     19 C19         -2.1230    -0.0610    -0.5180 ca         1 LGL       0.036600
     20 C20          1.3220     1.2540    -0.4930 cd         1 LGL      -0.163900
     21 C21          2.4080     3.1040    -0.1030 cc         1 LGL       0.196600
     22 C22          6.2170    -2.0370     0.6360 cc         1 LGL       0.411500
     23 C23          0.2570     0.2380    -0.5110 c          1 LGL       0.750100
     24 C24          7.8000    -3.2590     1.6240 c          1 LGL       0.773500
     25 C25         -0.2640     3.1050    -0.0270 c6         1 LGL      -0.017100
     26 C26         -5.1820     2.2900     1.4420 c5         1 LGL      -0.079400
     27 C27         -5.6440     1.2990     2.5320 c5         1 LGL      -0.079400
     28 C28         -1.2000     2.2120    -0.8280 c6         1 LGL       0.111000
     29 C29         -5.9700     1.8780     0.1970 c5         1 LGL       0.176300
     30 C30         -6.6190     0.3600     1.8130 c5         1 LGL       0.176300
     31 C31         -7.0610    -0.1840    -0.5360 c3         1 LGL       0.236100
     32 C32          2.7850     4.5110     0.1850 c3         1 LGL       0.661600
     33 N33          3.3260     2.1830    -0.3270 nd         1 LGL      -0.437800
     34 N34          6.6970    -1.2770     1.5640 nd         1 LGL      -0.474300
     35 N35          2.6650     1.0630    -0.5560 na         1 LGL       0.229300
     36 N36          6.8510    -3.2460     0.6250 ns         1 LGL      -0.489400
     37 N37          7.6540    -2.0190     2.1630 ns         1 LGL      -0.320900
     38 N38         -0.9840     0.7880    -0.5420 n          1 LGL      -0.393000
     39 N39         -6.2330     0.4800     0.4280 n3         1 LGL      -0.747600
     40 O41          8.5640    -4.1540     1.9380 o          1 LGL      -0.632500
     41 F42          2.1640     4.9550     1.2860 f          1 LGL      -0.226967
     42 F43          4.0950     4.6540     0.3680 f          1 LGL      -0.226967
     43 F44          2.4230     5.3310    -0.8110 f          1 LGL      -0.226967
     44 H1          -6.8200    -5.5390     0.0380 ha         1 LGL       0.133000
     45 H2          -9.0150    -4.3880    -0.1050 ha         1 LGL       0.132000
     46 H3           3.6260    -2.5590    -3.1590 ha         1 LGL       0.145000
     47 H4          -4.7410    -4.2250    -0.1050 ha         1 LGL       0.136000
     48 H5          -3.8330    -2.0970     1.5660 ha         1 LGL       0.134000
     49 H6          -4.7680    -0.9190    -2.4380 ha         1 LGL       0.134000
     50 H7           5.4220    -3.2750    -1.6670 ha         1 LGL       0.134000
     51 H8          -9.0940    -1.9380    -0.3600 ha         1 LGL       0.129000
     52 H9           2.3250    -0.5190    -2.6750 ha         1 LGL       0.152000
     53 H10         -1.7850    -0.7380     1.4900 ha         1 LGL       0.136500
     54 H11         -2.7080     0.4120    -2.5300 ha         1 LGL       0.136500
     55 H12          4.6040     0.0730     0.9030 ha         1 LGL       0.174000
     56 H25         -0.5360     3.1030     1.0320 hc         1 LGL       0.073700
     57 H25A        -0.3640     4.1300    -0.3840 hc         1 LGL       0.073700
     58 H26         -5.3660     3.3290     1.7120 hc         1 LGL       0.045450
     59 H26A        -4.1110     2.1820     1.2620 hc         1 LGL       0.045450
     60 H27         -4.7930     0.7400     2.9240 hc         1 LGL       0.045450
     61 H27A        -6.1210     1.7980     3.3750 hc         1 LGL       0.045450
     62 H28         -2.2350     2.4410    -0.5820 h1         1 LGL       0.055700
     63 H28A        -1.0640     2.4040    -1.8960 h1         1 LGL       0.055700
     64 H29         -6.8960     2.4750     0.1170 h1         1 LGL       0.033200
     65 H29A        -5.4090     2.0150    -0.7310 h1         1 LGL       0.033200
     66 H30         -6.5420    -0.6740     2.1550 h1         1 LGL       0.033200
     67 H30A        -7.6620     0.6830     1.9830 h1         1 LGL       0.033200
     68 H31         -6.7260     0.1190    -1.5330 h1         1 LGL       0.035200
     69 H31A        -8.1210     0.1180    -0.4700 h1         1 LGL       0.035200
     70 HN36         6.6510    -4.0390     0.0360 hn         1 LGL       0.362500
     71 HN37         8.1870    -1.6380     2.9280 hn         1 LGL       0.379500
     72 O40          0.4770    -0.9580    -0.4470 o          1 LGL      -0.604500
@<TRIPOS>BOND
     1     1     2 ar  
     2     1     4 ar  
     3     1    44 1   
     4     2     8 ar  
     5     2    45 1   
     6     3     7 ar  
     7     3     9 ar  
     8     3    46 1   
     9     4    14 ar  
    10     4    47 1   
    11     5    10 ar  
    12     5    13 ar  
    13     5    48 1   
    14     6    11 ar  
    15     6    13 ar  
    16     6    49 1   
    17     7    15 ar  
    18     7    50 1   
    19     8    17 ar  
    20     8    51 1   
    21     9    18 ar  
    22     9    52 1   
    23    10    19 ar  
    24    10    53 1   
    25    11    19 ar  
    26    11    54 1   
    27    12    15 ar  
    28    12    18 ar  
    29    12    55 1   
    30    13    14 1   
    31    14    17 ar  
    32    15    22 1   
    33    16    20 2   
    34    16    21 1   
    35    16    25 1   
    36    17    31 1   
    37    18    35 1   
    38    19    38 1   
    39    20    23 1   
    40    20    35 1   
    41    21    32 1   
    42    21    33 2   
    43    22    34 2   
    44    22    36 1   
    45    23    38 1   
    46    23    72 2   
    47    24    36 1   
    48    24    37 1   
    49    24    40 2   
    50    25    28 1   
    51    25    56 1   
    52    25    57 1   
    53    26    27 1   
    54    26    29 1   
    55    26    58 1   
    56    26    59 1   
    57    27    30 1   
    58    27    60 1   
    59    27    61 1   
    60    28    38 1   
    61    28    62 1   
    62    28    63 1   
    63    29    39 1   
    64    29    64 1   
    65    29    65 1   
    66    30    39 1   
    67    30    66 1   
    68    30    67 1   
    69    31    39 1   
    70    31    68 1   
    71    31    69 1   
    72    32    41 1   
    73    32    42 1   
    74    32    43 1   
    75    33    35 1   
    76    34    37 1   
    77    36    70 1   
    78    37    71 1   
@<TRIPOS>SUBSTRUCTURE
     1 LGL         1 TEMP              0 ****  ****    0 ROOT
