@<TRIPOS>MOLECULE
LGL
   72    78     1     0     0
SMALL
No Charge or Current Charge


@<TRIPOS>ATOM
      1 C1          -6.1610    -4.5570    -0.4460 ca         1 LGL      -0.109000
      2 C2          -7.4530    -4.0650    -0.2130 ca         1 LGL      -0.108000
      3 C3           4.4480    -1.7390    -2.4670 ca         1 LGL      -0.100000
      4 C4          -5.0870    -3.6630    -0.5720 ca         1 LGL      -0.103000
      5 C5          -3.0060    -1.4630     0.2680 ca         1 LGL      -0.085500
      6 C6          -4.0200    -0.4090    -1.6610 ca         1 LGL      -0.085500
      7 C7           4.8350    -2.3840    -1.2800 ca         1 LGL      -0.082000
      8 C8          -7.6680    -2.6820    -0.1020 ca         1 LGL      -0.110000
      9 C9           3.8830    -0.4550    -2.4220 ca         1 LGL      -0.062000
     10 C10         -1.8890    -0.6200     0.1410 ca         1 LGL      -0.106000
     11 C11         -2.9040     0.4350    -1.7870 ca         1 LGL      -0.106000
     12 C12          4.0930    -0.4570     0.0030 ca         1 LGL      -0.043000
     13 C13         -4.1030    -1.3570    -0.6160 cp         1 LGL      -0.002000
     14 C14         -5.2810    -2.2640    -0.4770 cp         1 LGL      -0.021000
     15 C15          4.6620    -1.7500    -0.0280 ca         1 LGL      -0.107900
     16 C16          1.5630     2.9130    -1.0670 cc         1 LGL      -0.115300
     17 C17         -6.5970    -1.7720    -0.2290 ca         1 LGL      -0.072300
     18 C18          3.7010     0.1880    -1.1850 ca         1 LGL       0.002800
     19 C19         -1.8530     0.3890    -0.8450 ca         1 LGL      -0.056000
     20 C20          1.7570     1.5720    -1.0960 cd         1 LGL      -0.214600
     21 C21          2.8360     3.5390    -1.0980 cc         1 LGL       0.131300
     22 C22          5.0600    -2.4030     1.2280 cc         1 LGL       0.411500
     23 C23          0.6600     0.5750    -1.0310 c          1 LGL       0.607600
     24 C24          5.8900    -4.0330     2.5600 c          1 LGL       0.564000
     25 C25          0.2070     3.5510    -0.9780 c6         1 LGL      -0.017100
     26 C26         -5.7630     1.9850     2.6980 c5         1 LGL      -0.079400
     27 C27         -5.9610     0.6340     3.4590 c5         1 LGL      -0.079400
     28 C28         -0.8170     2.5530    -1.5690 c6         1 LGL       0.111000
     29 C29         -6.4690     1.7510     1.3370 c5         1 LGL       0.176300
     30 C30         -6.7190    -0.2620     2.4420 c5         1 LGL       0.176300
     31 C31         -6.8890    -0.2790    -0.0560 c3         1 LGL       0.236100
     32 C32          3.0270     5.0490    -1.0710 c3         1 LGL       0.297700
     33 N33          3.8320     2.6630    -1.1480 nd         1 LGL      -0.437800
     34 N34          4.9590    -1.9130     2.4600 nd         1 LGL      -0.474300
     35 N35          3.1430     1.4630    -1.1350 na         1 LGL       0.280000
     36 N36          5.6120    -3.6590     1.2960 ns         1 LGL      -0.535900
     37 N37          5.4710    -2.9290     3.2330 ns         1 LGL      -0.367400
     38 N38         -0.6460     1.1510    -1.0740 n          1 LGL      -0.233400
     39 N39         -6.2680     0.3020     1.1550 n3         1 LGL      -0.747600
     40 O41          6.3770    -5.0670     2.9730 o          1 LGL      -0.557000
     41 F42          2.3990     5.6140    -0.0140 f          1 LGL      -0.105667
     42 F43          4.3320     5.4030    -0.9870 f          1 LGL      -0.105667
     43 F44          2.5340     5.6320    -2.1880 f          1 LGL      -0.105667
     44 H1          -5.9920    -5.6290    -0.5270 ha         1 LGL       0.115000
     45 H2          -8.2880    -4.7550    -0.1110 ha         1 LGL       0.114000
     46 H3           4.5870    -2.2360    -3.4250 ha         1 LGL       0.127000
     47 H4          -4.0890    -4.0540    -0.7550 ha         1 LGL       0.118000
     48 H5          -3.0270    -2.2070     1.0610 ha         1 LGL       0.116000
     49 H6          -4.8230    -0.3440    -2.3910 ha         1 LGL       0.116000
     50 H7           5.2690    -3.3780    -1.3480 ha         1 LGL       0.116000
     51 H8          -8.6740    -2.3160     0.0930 ha         1 LGL       0.111000
     52 H9           3.5860     0.0400    -3.3440 ha         1 LGL       0.134000
     53 H10         -1.0620    -0.7350     0.8380 ha         1 LGL       0.118500
     54 H11         -2.8650     1.1240    -2.6270 ha         1 LGL       0.118500
     55 H12          3.9500     0.0530     0.9540 ha         1 LGL       0.156000
     56 H25         -0.0480     3.7660     0.0680 hc         1 LGL       0.073700
     57 H25A         0.1550     4.5020    -1.5240 hc         1 LGL       0.073700
     58 H26         -6.1900     2.8380     3.2370 hc         1 LGL       0.045450
     59 H26A        -4.6970     2.1950     2.5530 hc         1 LGL       0.045450
     60 H27         -4.9930     0.1920     3.7250 hc         1 LGL       0.045450
     61 H27A        -6.5270     0.7550     4.3890 hc         1 LGL       0.045450
     62 H28         -1.8310     2.9110    -1.3380 h1         1 LGL       0.055700
     63 H28A        -0.7140     2.5440    -2.6630 h1         1 LGL       0.055700
     64 H29         -7.5380     2.0030     1.3950 h1         1 LGL       0.033200
     65 H29A        -6.0190     2.3450     0.5300 h1         1 LGL       0.033200
     66 H30         -6.4580    -1.3240     2.5550 h1         1 LGL       0.033200
     67 H30A        -7.8080    -0.1630     2.5610 h1         1 LGL       0.033200
     68 H31         -6.5360     0.2560    -0.9460 h1         1 LGL       0.035200
     69 H31A        -7.9760    -0.1270    -0.0190 h1         1 LGL       0.035200
     70 HN36         5.8020    -4.2620     0.5110 hn         1 LGL       0.476000
     71 HN37         5.5490    -2.8930     4.2520 hn         1 LGL       0.493000
     72 O40          0.8570    -0.6300    -0.9420 o          1 LGL      -0.529000
@<TRIPOS>BOND
     1     1     2 ar  
     2     1     4 ar  
     3     1    44 1   
     4     2     8 ar  
     5     2    45 1   
     6     3     7 ar  
     7     3     9 ar  
     8     3    46 1   
     9     4    14 ar  
    10     4    47 1   
    11     5    10 ar  
    12     5    13 ar  
    13     5    48 1   
    14     6    11 ar  
    15     6    13 ar  
    16     6    49 1   
    17     7    15 ar  
    18     7    50 1   
    19     8    17 ar  
    20     8    51 1   
    21     9    18 ar  
    22     9    52 1   
    23    10    19 ar  
    24    10    53 1   
    25    11    19 ar  
    26    11    54 1   
    27    12    15 ar  
    28    12    18 ar  
    29    12    55 1   
    30    13    14 1   
    31    14    17 ar  
    32    15    22 1   
    33    16    20 2   
    34    16    21 1   
    35    16    25 1   
    36    17    31 1   
    37    18    35 1   
    38    19    38 1   
    39    20    23 1   
    40    20    35 1   
    41    21    32 1   
    42    21    33 2   
    43    22    34 2   
    44    22    36 1   
    45    23    38 1   
    46    23    72 2   
    47    24    36 1   
    48    24    37 1   
    49    24    40 2   
    50    25    28 1   
    51    25    56 1   
    52    25    57 1   
    53    26    27 1   
    54    26    29 1   
    55    26    58 1   
    56    26    59 1   
    57    27    30 1   
    58    27    60 1   
    59    27    61 1   
    60    28    38 1   
    61    28    62 1   
    62    28    63 1   
    63    29    39 1   
    64    29    64 1   
    65    29    65 1   
    66    30    39 1   
    67    30    66 1   
    68    30    67 1   
    69    31    39 1   
    70    31    68 1   
    71    31    69 1   
    72    32    41 1   
    73    32    42 1   
    74    32    43 1   
    75    33    35 1   
    76    34    37 1   
    77    36    70 1   
    78    37    71 1   
@<TRIPOS>SUBSTRUCTURE
     1 LGL         1 TEMP              0 ****  ****    0 ROOT
