@<TRIPOS>MOLECULE
LGM
   72    78     1     0     0
SMALL
No Charge or Current Charge


@<TRIPOS>ATOM
      1 C1          -5.5480    -4.4770    -0.5570 ca         1 LGM      -0.110000
      2 C2          -6.8750    -4.0890    -0.3230 ca         1 LGM      -0.109000
      3 C3           4.8440    -0.8250    -2.4390 ca         1 LGM      -0.101000
      4 C4          -4.5440    -3.5020    -0.6600 ca         1 LGM      -0.103000
      5 C5          -2.6400    -1.1670     0.2360 ca         1 LGM      -0.086500
      6 C6          -3.7210    -0.1570    -1.6800 ca         1 LGM      -0.086500
      7 C7           5.2710    -1.4550    -1.2580 ca         1 LGM      -0.089000
      8 C8          -7.1940    -2.7290    -0.1860 ca         1 LGM      -0.111000
      9 C9           4.1790     0.4100    -2.3820 ca         1 LGM      -0.069000
     10 C10         -1.5890    -0.2410     0.1310 ca         1 LGM      -0.108500
     11 C11         -2.6700     0.7710    -1.7840 ca         1 LGM      -0.108500
     12 C12          4.3700     0.3890     0.0450 ca         1 LGM      -0.049000
     13 C13         -3.7370    -1.1280    -0.6530 cp         1 LGM      -0.004000
     14 C14         -4.8440    -2.1240    -0.5380 cp         1 LGM      -0.018000
     15 C15          5.0390    -0.8550     0.0020 ca         1 LGM      -0.110900
     16 C16          1.5910     3.5640    -0.9960 cc         1 LGM      -0.166300
     17 C17         -6.1940    -1.7380    -0.2890 ca         1 LGM      -0.072300
     18 C18          3.9380     1.0190    -1.1380 ca         1 LGM       0.016800
     19 C19         -1.6240     0.7870    -0.8360 ca         1 LGM      -0.051000
     20 C20          1.8880     2.2430    -1.0440 cd         1 LGM      -0.207600
     21 C21          2.8080     4.2800    -1.0100 cc         1 LGM       0.265300
     22 C22          5.4760    -1.4920     1.2520 cc         1 LGM       0.416500
     23 C23          0.8690     1.1630    -1.0020 c          1 LGM       0.605600
     24 C24          6.4220    -3.0710     2.5670 c          1 LGM       0.563000
     25 C25          0.1940     4.1010    -0.9070 c6         1 LGM      -0.011100
     26 C26         -5.6820     2.0050     2.7300 c5         1 LGM      -0.079400
     27 C27         -5.7880     0.6260     3.4590 c5         1 LGM      -0.079400
     28 C28         -0.7510     3.0360    -1.5150 c6         1 LGM       0.113000
     29 C29         -6.3510     1.7490     1.3540 c5         1 LGM       0.177300
     30 C30         -6.4640    -0.3010     2.4120 c5         1 LGM       0.177300
     31 C31          2.8830     5.7800    -0.9600 c3         1 LGM      -0.119400
     32 C32         -6.5990    -0.2750    -0.0880 c3         1 LGM       0.237100
     33 N33          3.8720     3.4990    -1.0650 nd         1 LGM      -0.494800
     34 N34          5.3280    -1.0300     2.4900 nd         1 LGM      -0.477300
     35 N35          3.2810     2.2450    -1.0750 na         1 LGM       0.260000
     36 N36          6.1250    -2.7010     1.3070 ns         1 LGM      -0.535900
     37 N37          5.9130    -2.0140     3.2530 ns         1 LGM      -0.368400
     38 N38         -0.4770     1.6410    -1.0440 n          1 LGM      -0.236400
     39 N39         -6.0390     0.3240     1.1440 n3         1 LGM      -0.748600
     40 O41          6.9860    -4.0710     2.9700 o          1 LGM      -0.560000
     41 H1          -5.2970    -5.5310    -0.6590 ha         1 LGM       0.114000
     42 H2          -7.6550    -4.8420    -0.2400 ha         1 LGM       0.113000
     43 H3           5.0290    -1.2960    -3.4030 ha         1 LGM       0.124000
     44 H4          -3.5180    -3.8120    -0.8440 ha         1 LGM       0.118000
     45 H5          -2.6090    -1.9250     1.0150 ha         1 LGM       0.115000
     46 H6          -4.5230    -0.1390    -2.4130 ha         1 LGM       0.115000
     47 H7           5.7820    -2.4110    -1.3350 ha         1 LGM       0.113000
     48 H8          -8.2250    -2.4440     0.0100 ha         1 LGM       0.110000
     49 H9           3.8510     0.8930    -3.2990 ha         1 LGM       0.132000
     50 H10         -0.7590    -0.3060     0.8310 ha         1 LGM       0.118000
     51 H11         -2.6790     1.4770    -2.6100 ha         1 LGM       0.118000
     52 H12          4.1790     0.8740     1.0010 ha         1 LGM       0.155000
     53 H25         -0.0800     4.2850     0.1410 hc         1 LGM       0.062700
     54 H25A         0.0810     5.0530    -1.4420 hc         1 LGM       0.062700
     55 H26         -6.1800     2.8110     3.2800 hc         1 LGM       0.045200
     56 H26A        -4.6330     2.2970     2.6050 hc         1 LGM       0.045200
     57 H27         -4.7940     0.2520     3.7290 hc         1 LGM       0.045200
     58 H27A        -6.3740     0.6840     4.3820 hc         1 LGM       0.045200
     59 H28         -1.7890     3.3130    -1.2810 h1         1 LGM       0.051700
     60 H28A        -0.6470     3.0530    -2.6090 h1         1 LGM       0.051700
     61 H29         -7.4360     1.9190     1.4000 h1         1 LGM       0.032700
     62 H29A        -5.9350     2.3930     0.5660 h1         1 LGM       0.032700
     63 H30         -6.1250    -1.3420     2.5060 h1         1 LGM       0.032700
     64 H30A        -7.5580    -0.2860     2.5160 h1         1 LGM       0.032700
     65 H31          2.3370     6.1670    -0.0920 hc         1 LGM       0.050367
     66 H31A         3.9210     6.1240    -0.8850 hc         1 LGM       0.050367
     67 H31B         2.4450     6.2190    -1.8630 hc         1 LGM       0.050367
     68 H32         -6.2760     0.3050    -0.9620 h1         1 LGM       0.034700
     69 H32A        -7.6960    -0.2050    -0.0640 h1         1 LGM       0.034700
     70 HN36         6.3680    -3.2760     0.5140 hn         1 LGM       0.476000
     71 HN37         5.9800    -1.9880     4.2730 hn         1 LGM       0.492000
     72 O40          1.1570    -0.0250    -0.9320 o          1 LGM      -0.533000
@<TRIPOS>BOND
     1     1     2 ar  
     2     1     4 ar  
     3     1    41 1   
     4     2     8 ar  
     5     2    42 1   
     6     3     7 ar  
     7     3     9 ar  
     8     3    43 1   
     9     4    14 ar  
    10     4    44 1   
    11     5    10 ar  
    12     5    13 ar  
    13     5    45 1   
    14     6    11 ar  
    15     6    13 ar  
    16     6    46 1   
    17     7    15 ar  
    18     7    47 1   
    19     8    17 ar  
    20     8    48 1   
    21     9    18 ar  
    22     9    49 1   
    23    10    19 ar  
    24    10    50 1   
    25    11    19 ar  
    26    11    51 1   
    27    12    15 ar  
    28    12    18 ar  
    29    12    52 1   
    30    13    14 1   
    31    14    17 ar  
    32    15    22 1   
    33    16    20 2   
    34    16    21 1   
    35    16    25 1   
    36    17    32 1   
    37    18    35 1   
    38    19    38 1   
    39    20    23 1   
    40    20    35 1   
    41    21    31 1   
    42    21    33 2   
    43    22    34 2   
    44    22    36 1   
    45    23    38 1   
    46    23    72 2   
    47    24    36 1   
    48    24    37 1   
    49    24    40 2   
    50    25    28 1   
    51    25    53 1   
    52    25    54 1   
    53    26    27 1   
    54    26    29 1   
    55    26    55 1   
    56    26    56 1   
    57    27    30 1   
    58    27    57 1   
    59    27    58 1   
    60    28    38 1   
    61    28    59 1   
    62    28    60 1   
    63    29    39 1   
    64    29    61 1   
    65    29    62 1   
    66    30    39 1   
    67    30    63 1   
    68    30    64 1   
    69    31    65 1   
    70    31    66 1   
    71    31    67 1   
    72    32    39 1   
    73    32    68 1   
    74    32    69 1   
    75    33    35 1   
    76    34    37 1   
    77    36    70 1   
    78    37    71 1   
@<TRIPOS>SUBSTRUCTURE
     1 LGM         1 TEMP              0 ****  ****    0 ROOT
