@<TRIPOS>MOLECULE
LGM
   72    78     1     0     0
SMALL
abcg2


@<TRIPOS>ATOM
      1 C1          -6.2690    -4.4400    -0.1530 ca         1 LGM      -0.110000
      2 C2          -7.5460    -3.9100    -0.2430 ca         1 LGM      -0.109000
      3 C3           4.2020    -1.2060    -2.1950 ca         1 LGM      -0.101000
      4 C4          -5.1700    -3.5930    -0.2130 ca         1 LGM      -0.103000
      5 C5          -3.2400    -1.2980     0.6380 ca         1 LGM      -0.086500
      6 C6          -3.8330    -0.6100    -1.5750 ca         1 LGM      -0.086500
      7 C7           5.2890    -1.5100    -1.3880 ca         1 LGM      -0.089000
      8 C8          -7.7100    -2.5370    -0.3820 ca         1 LGM      -0.111000
      9 C9           3.3770    -0.1370    -1.8940 ca         1 LGM      -0.069000
     10 C10         -2.1390    -0.4590     0.6110 ca         1 LGM      -0.108500
     11 C11         -2.7240     0.2200    -1.6160 ca         1 LGM      -0.108500
     12 C12          4.7200     0.3320     0.0540 ca         1 LGM      -0.049000
     13 C13         -4.1190    -1.3610    -0.4400 cp         1 LGM      -0.004000
     14 C14         -5.3270    -2.2180    -0.3700 cp         1 LGM      -0.018000
     15 C15          5.5560    -0.7380    -0.2610 ca         1 LGM      -0.110900
     16 C16          1.1770     3.1350    -0.1050 cc         1 LGM      -0.166300
     17 C17         -6.6190    -1.6780    -0.4480 ca         1 LGM      -0.072300
     18 C18          3.6400     0.6220    -0.7600 ca         1 LGM       0.016800
     19 C19         -1.8840     0.3150    -0.5140 ca         1 LGM      -0.051000
     20 C20          1.4740     1.8350    -0.4210 cd         1 LGM      -0.207600
     21 C21          2.4250     3.7630     0.0650 cc         1 LGM       0.265300
     22 C22          6.6990    -1.0210     0.6010 cc         1 LGM       0.416500
     23 C23          0.4740     0.7580    -0.4750 c          1 LGM       0.605600
     24 C24          8.4600    -2.0650     1.4880 c          1 LGM       0.563000
     25 C25         -0.2340     3.5790     0.0280 c6         1 LGM      -0.011100
     26 C26         -5.1300     2.4000     1.4250 c5         1 LGM      -0.079400
     27 C27         -5.5630     1.3950     2.5150 c5         1 LGM      -0.079400
     28 C28         -1.0940     2.6420    -0.8070 c6         1 LGM       0.113000
     29 C29         -5.8680     1.9400     0.1670 c5         1 LGM       0.177300
     30 C30         -6.4880     0.4150     1.7870 c5         1 LGM       0.177300
     31 C31          2.6940     5.1820     0.4210 c3         1 LGM      -0.119400
     32 C32         -6.8440    -0.1870    -0.5620 c3         1 LGM       0.237100
     33 N33          3.4010     2.8980    -0.1520 nd         1 LGM      -0.494800
     34 N34          7.1220    -0.2340     1.5340 nd         1 LGM      -0.477300
     35 N35          2.8260     1.7300    -0.4390 na         1 LGM       0.260000
     36 N36          7.4740    -2.1430     0.5290 ns         1 LGM      -0.535900
     37 N37          8.1850    -0.8690     2.0740 ns         1 LGM      -0.368400
     38 N38         -0.8010     1.2310    -0.5240 n          1 LGM      -0.236400
     39 N39         -6.0750     0.5330     0.4110 n3         1 LGM      -0.748600
     40 O41          9.3460    -2.8640     1.7370 o          1 LGM      -0.560000
     41 H1          -6.1240    -5.5070    -0.0380 ha         1 LGM       0.114000
     42 H2          -8.4120    -4.5570    -0.1950 ha         1 LGM       0.113000
     43 H3           4.0090    -1.8000    -3.0770 ha         1 LGM       0.124000
     44 H4          -4.1710    -4.0060    -0.1500 ha         1 LGM       0.118000
     45 H5          -3.4460    -1.8760     1.5300 ha         1 LGM       0.115000
     46 H6          -4.4890    -0.6600    -2.4350 ha         1 LGM       0.115000
     47 H7           5.9250    -2.3410    -1.6630 ha         1 LGM       0.113000
     48 H8          -8.7110    -2.1230    -0.4280 ha         1 LGM       0.110000
     49 H9           2.5520     0.1120    -2.5470 ha         1 LGM       0.132000
     50 H10         -1.4930    -0.3870     1.4760 ha         1 LGM       0.118000
     51 H11         -2.5190     0.8000    -2.5080 ha         1 LGM       0.118000
     52 H12          4.9050     0.9290     0.9370 ha         1 LGM       0.155000
     53 H25         -0.5480     3.5620     1.0770 hc         1 LGM       0.062700
     54 H25A        -0.3750     4.6000    -0.3290 hc         1 LGM       0.062700
     55 H26         -5.3720     3.4310     1.6820 hc         1 LGM       0.045200
     56 H26A        -4.0520     2.3460     1.2670 hc         1 LGM       0.045200
     57 H27         -4.6940     0.8720     2.9160 hc         1 LGM       0.045200
     58 H27A        -6.0690     1.8760     3.3520 hc         1 LGM       0.045200
     59 H28         -2.1490     2.8030    -0.5950 h1         1 LGM       0.051700
     60 H28A        -0.9360     2.8510    -1.8690 h1         1 LGM       0.051700
     61 H29         -6.8160     2.4940     0.0520 h1         1 LGM       0.032700
     62 H29A        -5.2880     2.0890    -0.7460 h1         1 LGM       0.032700
     63 H30         -6.3830    -0.6130     2.1430 h1         1 LGM       0.032700
     64 H30A        -7.5460     0.7020     1.9290 h1         1 LGM       0.032700
     65 H31          2.2530     5.4330     1.3870 hc         1 LGM       0.050367
     66 H31A         3.7640     5.3750     0.4760 hc         1 LGM       0.050367
     67 H31B         2.2640     5.8610    -0.3160 hc         1 LGM       0.050367
     68 H32         -6.5380     0.1560    -1.5560 h1         1 LGM       0.034700
     69 H32A        -7.9260     0.0190    -0.4920 h1         1 LGM       0.034700
     70 HN36         7.3500    -2.9380    -0.0780 hn         1 LGM       0.476000
     71 HN37         8.7020    -0.4450     2.8270 hn         1 LGM       0.492000
     72 O40          0.7580    -0.4260    -0.4180 o          1 LGM      -0.533000
@<TRIPOS>BOND
     1     1     2 ar  
     2     1     4 ar  
     3     1    41 1   
     4     2     8 ar  
     5     2    42 1   
     6     3     7 ar  
     7     3     9 ar  
     8     3    43 1   
     9     4    14 ar  
    10     4    44 1   
    11     5    10 ar  
    12     5    13 ar  
    13     5    45 1   
    14     6    11 ar  
    15     6    13 ar  
    16     6    46 1   
    17     7    15 ar  
    18     7    47 1   
    19     8    17 ar  
    20     8    48 1   
    21     9    18 ar  
    22     9    49 1   
    23    10    19 ar  
    24    10    50 1   
    25    11    19 ar  
    26    11    51 1   
    27    12    15 ar  
    28    12    18 ar  
    29    12    52 1   
    30    13    14 1   
    31    14    17 ar  
    32    15    22 1   
    33    16    20 2   
    34    16    21 1   
    35    16    25 1   
    36    17    32 1   
    37    18    35 1   
    38    19    38 1   
    39    20    23 1   
    40    20    35 1   
    41    21    31 1   
    42    21    33 2   
    43    22    34 2   
    44    22    36 1   
    45    23    38 1   
    46    23    72 2   
    47    24    36 1   
    48    24    37 1   
    49    24    40 2   
    50    25    28 1   
    51    25    53 1   
    52    25    54 1   
    53    26    27 1   
    54    26    29 1   
    55    26    55 1   
    56    26    56 1   
    57    27    30 1   
    58    27    57 1   
    59    27    58 1   
    60    28    38 1   
    61    28    59 1   
    62    28    60 1   
    63    29    39 1   
    64    29    61 1   
    65    29    62 1   
    66    30    39 1   
    67    30    63 1   
    68    30    64 1   
    69    31    65 1   
    70    31    66 1   
    71    31    67 1   
    72    32    39 1   
    73    32    68 1   
    74    32    69 1   
    75    33    35 1   
    76    34    37 1   
    77    36    70 1   
    78    37    71 1   
@<TRIPOS>SUBSTRUCTURE
     1 LGM         1 TEMP              0 ****  ****    0 ROOT
