@<TRIPOS>MOLECULE
LGN
  198   200     1     0     0
SMALL
No Charge or Current Charge


@<TRIPOS>ATOM
      1 C1          -2.8880    -3.0550    -0.0650 c6         1 LGN       0.367300
      2 O1          -4.0880    -3.8530    -0.0280 os         1 LGN      -0.440000
      3 C2          -2.4920    -2.7550    -1.5430 c6         1 LGN       0.097300
      4 O2          -2.2800    -3.9580    -2.3260 oh         1 LGN      -0.739000
      5 C3          -1.2110    -1.8810    -1.5410 c6         1 LGN       0.159300
      6 O3          -0.8200    -1.6360    -2.9030 oh         1 LGN      -0.686000
      7 C4          -1.4580    -0.5690    -0.7270 c6         1 LGN       0.150300
      8 O4          -0.2620     0.2580    -0.7180 os         1 LGN      -0.443000
      9 C5          -1.9490    -0.9540     0.7110 c6         1 LGN       0.156300
     10 O5          -3.1200    -1.8120     0.6230 os         1 LGN      -0.452000
     11 C6          -2.3120     0.2700     1.6150 c3         1 LGN       0.167600
     12 O6          -2.8510    -0.1100     2.8970 oh         1 LGN      -0.707000
     13 CAA         -5.8020   -25.6740    -1.6310 c3         1 LGN      -0.088100
     14 CAB         -6.3920   -24.2530    -1.7160 c3         1 LGN      -0.075400
     15 CAC         -5.3500   -23.1480    -1.4350 c3         1 LGN      -0.075400
     16 CAD         -5.9410   -21.7230    -1.5230 c3         1 LGN      -0.074400
     17 CAE         -4.9000   -20.6190    -1.2370 c3         1 LGN      -0.074400
     18 CAF         -5.4910   -19.1940    -1.3280 c3         1 LGN      -0.074400
     19 CAG         -4.4520   -18.0890    -1.0370 c3         1 LGN      -0.074400
     20 CAH         -5.0430   -16.6650    -1.1310 c3         1 LGN      -0.074400
     21 CAI         -4.0060   -15.5590    -0.8370 c3         1 LGN      -0.073400
     22 CAJ         -4.5980   -14.1360    -0.9340 c3         1 LGN      -0.074400
     23 CAK         -3.5630   -13.0280    -0.6360 c3         1 LGN      -0.074400
     24 CAL         -4.1560   -11.6050    -0.7400 c3         1 LGN      -0.073400
     25 CAM         -3.1270   -10.4950    -0.4390 c3         1 LGN      -0.044200
     26 CAP         -4.4970    -6.8710     0.3660 c3         1 LGN       0.202500
     27 OAQ         -5.8990    -7.0120     0.5880 oh         1 LGN      -0.645000
     28 CAR         -3.8870    -5.8650     1.3850 c3         1 LGN       0.049700
     29 NAS         -2.4130    -5.8560     1.3210 ns         1 LGN      -0.517900
     30 CAT         -1.5750    -5.7840     2.4080 c          1 LGN       0.600100
     31 OAU         -1.9740    -5.9010     3.5580 o          1 LGN      -0.604100
     32 CAV         -0.1040    -5.5400     2.0610 c3         1 LGN      -0.161400
     33 CAW          0.3340    -4.1250     2.5110 c3         1 LGN      -0.069400
     34 CAX          1.5700    -3.5860     1.7610 c3         1 LGN      -0.078400
     35 CAY          2.0500    -2.2280     2.3170 c3         1 LGN      -0.072400
     36 CAZ          3.1800    -1.5870     1.4830 c3         1 LGN      -0.079400
     37 CBA          3.7400    -0.3010     2.1310 c3         1 LGN      -0.071400
     38 CBB          4.7400     0.4530     1.2280 c3         1 LGN      -0.078400
     39 CBC          5.2940     1.7340     1.8890 c3         1 LGN      -0.073400
     40 CBD          6.2600     2.5210     0.9770 c3         1 LGN      -0.077400
     41 CBE          6.8630     3.7600     1.6710 c3         1 LGN      -0.078400
     42 CBF          7.8070     4.5690     0.7570 c3         1 LGN      -0.072400
     43 CBG          8.4050     5.8090     1.4570 c3         1 LGN      -0.078400
     44 CBH          9.2960     6.6570     0.5240 c3         1 LGN      -0.073400
     45 CBI          9.8940     7.8970     1.2250 c3         1 LGN      -0.074400
     46 CBJ         10.7870     8.7460     0.2940 c3         1 LGN      -0.074400
     47 CBK         11.3870     9.9840     0.9950 c3         1 LGN      -0.074400
     48 CBL         12.2830    10.8300     0.0650 c3         1 LGN      -0.074400
     49 CBM         12.8850    12.0680     0.7660 c3         1 LGN      -0.074400
     50 CBN         13.7840    12.9120    -0.1640 c3         1 LGN      -0.074400
     51 CBO         14.3860    14.1500     0.5380 c3         1 LGN      -0.074400
     52 CBP         15.2870    14.9920    -0.3910 c3         1 LGN      -0.074400
     53 CBQ         15.8910    16.2290     0.3100 c3         1 LGN      -0.074400
     54 CBR         16.7950    17.0690    -0.6180 c3         1 LGN      -0.075400
     55 CBS         17.4010    18.3040     0.0830 c3         1 LGN      -0.075400
     56 CBT         18.3040    19.1410    -0.8430 c3         1 LGN      -0.088100
     57 CBU         -4.4720    -4.4280     1.2440 c3         1 LGN       0.149600
     58 CBX          1.9280     6.0890    -0.5310 c6         1 LGN       0.367300
     59 OBY          2.2920     6.5210     0.7970 os         1 LGN      -0.437000
     60 CBZ          2.8660     6.7200    -1.6160 c6         1 LGN       0.103300
     61 OCA          2.5890     6.2280    -2.9520 oh         1 LGN      -0.727000
     62 CCB          4.3610     6.4530    -1.2620 c6         1 LGN       0.134300
     63 OCC          5.2160     7.1470    -2.1980 oh         1 LGN      -0.673000
     64 CCD          4.6730     6.9080     0.1950 c6         1 LGN       0.147300
     65 OCE          4.6110     8.3490     0.2570 oh         1 LGN      -0.717000
     66 CCF          3.6640     6.2160     1.1700 c6         1 LGN       0.171300
     67 CCH         -0.4720     1.6850    -0.7950 c6         1 LGN       0.365300
     68 CCI          0.8770     2.4340    -0.5590 c6         1 LGN       0.147300
     69 OCJ          1.4550     2.0860     0.7230 oh         1 LGN      -0.703000
     70 OCK         -0.9900     2.0200    -2.0930 os         1 LGN      -0.435000
     71 CCL         -1.3130     3.4260    -2.2230 c6         1 LGN       0.184300
     72 CCM         -2.0520     3.6530    -3.5830 c3         1 LGN       0.174600
     73 OCN         -3.2810     2.9040    -3.6960 oh         1 LGN      -0.713000
     74 CCO         -0.0270     4.3070    -2.0730 c6         1 LGN       0.114300
     75 OCP          0.8960     4.1420    -3.1710 oh         1 LGN      -0.707000
     76 CCQ          0.6790     3.9780    -0.7090 c6         1 LGN       0.147300
     77 OCR          1.9630     4.6480    -0.5970 os         1 LGN      -0.464000
     78 CDA          3.8910     6.6430     2.6590 c3         1 LGN       0.171600
     79 ODA          3.0050     5.9830     3.5870 oh         1 LGN      -0.710000
     80 H1          -2.0630    -3.5920     0.4240 h2         1 LGN       0.034700
     81 H2          -3.3090    -2.1650    -1.9850 h1         1 LGN       0.074700
     82 HO2         -3.1130    -4.4840    -2.2580 ho         1 LGN       0.524000
     83 H3          -0.4160    -2.4470    -1.0320 h1         1 LGN       0.048700
     84 HO3         -1.0530    -2.4770    -3.3650 ho         1 LGN       0.513000
     85 H4          -2.2670    -0.0190    -1.2310 h1         1 LGN       0.075700
     86 H5          -1.1470    -1.5090     1.2180 h1         1 LGN       0.056700
     87 H6          -1.4020     0.8660     1.7650 h1         1 LGN       0.034700
     88 H6A         -3.0330     0.8960     1.0720 h1         1 LGN       0.034700
     89 HO6         -3.1330     0.7180     3.3510 ho         1 LGN       0.507000
     90 HAA         -5.3950   -25.8660    -0.6300 hc         1 LGN       0.031367
     91 HAAA        -6.5770   -26.4220    -1.8350 hc         1 LGN       0.031367
     92 HAAB        -4.9970   -25.8040    -2.3640 hc         1 LGN       0.031367
     93 HAB         -6.8200   -24.1040    -2.7150 hc         1 LGN       0.036700
     94 HABA        -7.2170   -24.1660    -0.9980 hc         1 LGN       0.036700
     95 HAC         -4.9250   -23.3000    -0.4340 hc         1 LGN       0.036700
     96 HACA        -4.5240   -23.2410    -2.1510 hc         1 LGN       0.036700
     97 HAD         -6.3630   -21.5700    -2.5250 hc         1 LGN       0.036700
     98 HADA        -6.7690   -21.6320    -0.8090 hc         1 LGN       0.036700
     99 HAE         -4.4790   -20.7710    -0.2350 hc         1 LGN       0.036700
    100 HAEA        -4.0710   -20.7110    -1.9510 hc         1 LGN       0.036700
    101 HAF         -5.9080   -19.0410    -2.3310 hc         1 LGN       0.037200
    102 HAFA        -6.3220   -19.1030    -0.6180 hc         1 LGN       0.037200
    103 HAG         -4.0360   -18.2410    -0.0330 hc         1 LGN       0.036700
    104 HAGA        -3.6190   -18.1810    -1.7460 hc         1 LGN       0.036700
    105 HAH         -5.4570   -16.5130    -2.1360 hc         1 LGN       0.037200
    106 HAHA        -5.8770   -16.5740    -0.4240 hc         1 LGN       0.037200
    107 HAI         -3.5940   -15.7100     0.1690 hc         1 LGN       0.037200
    108 HAIA        -3.1710   -15.6510    -1.5430 hc         1 LGN       0.037200
    109 HAJ         -5.0070   -13.9840    -1.9410 hc         1 LGN       0.038200
    110 HAJA        -5.4350   -14.0450    -0.2310 hc         1 LGN       0.038200
    111 HAK         -3.1580   -13.1770     0.3730 hc         1 LGN       0.037200
    112 HAKA        -2.7230   -13.1210    -1.3360 hc         1 LGN       0.037200
    113 HAL         -4.5600   -11.4560    -1.7490 hc         1 LGN       0.041200
    114 HALA        -4.9970   -11.5120    -0.0410 hc         1 LGN       0.041200
    115 HAM         -2.7190   -10.6520     0.5680 hc         1 LGN       0.045200
    116 HAMA        -2.2830   -10.5850    -1.1340 hc         1 LGN       0.045200
    117 HAN         -4.0400    -8.8360    -1.5630 ha         1 LGN       0.171000
    118 HOAQ        -6.1630    -7.8360     0.1270 ho         1 LGN       0.441000
    119 HAR         -4.1760    -6.2250     2.3820 h1         1 LGN       0.086700
    120 HNAS        -1.9750    -5.8130     0.4090 hn         1 LGN       0.331500
    121 HAV          0.5170    -6.2810     2.5770 hc         1 LGN       0.063200
    122 HAVA         0.0410    -5.6380     0.9780 hc         1 LGN       0.063200
    123 HAW         -0.4960    -3.4250     2.3550 hc         1 LGN       0.046200
    124 HAWA         0.5310    -4.1390     3.5900 hc         1 LGN       0.046200
    125 HAX          2.3880    -4.3140     1.8320 hc         1 LGN       0.039700
    126 HAXA         1.3250    -3.4780     0.6970 hc         1 LGN       0.039700
    127 HAY          1.2020    -1.5320     2.3570 hc         1 LGN       0.037200
    128 HAYA         2.3960    -2.3690     3.3490 hc         1 LGN       0.037200
    129 HAZ          3.9970    -2.3090     1.3570 hc         1 LGN       0.045200
    130 HAZA         2.7970    -1.3570     0.4810 hc         1 LGN       0.045200
    131 HBA          2.9100     0.3680     2.3860 hc         1 LGN       0.033200
    132 HBAA         4.2330    -0.5630     3.0750 hc         1 LGN       0.033200
    133 HBB          5.5740    -0.2140     0.9750 hc         1 LGN       0.043200
    134 HBBA         4.2460     0.7200     0.2850 hc         1 LGN       0.043200
    135 HBC          4.4580     2.3860     2.1710 hc         1 LGN       0.036200
    136 HBCA         5.8150     1.4610     2.8160 hc         1 LGN       0.036200
    137 HBD          7.0730     1.8590     0.6540 hc         1 LGN       0.039200
    138 HBDA         5.7230     2.8360     0.0730 hc         1 LGN       0.039200
    139 HBE          6.0500     4.4100     2.0170 hc         1 LGN       0.038700
    140 HBEA         7.4150     3.4390     2.5640 hc         1 LGN       0.038700
    141 HBF          8.6240     3.9190     0.4170 hc         1 LGN       0.033700
    142 HBFA         7.2590     4.8840    -0.1390 hc         1 LGN       0.033700
    143 HBG          7.5930     6.4350     1.8450 hc         1 LGN       0.041200
    144 HBGA         8.9960     5.4820     2.3220 hc         1 LGN       0.041200
    145 HBH         10.1120     6.0330     0.1390 hc         1 LGN       0.035700
    146 HBHA         8.7060     6.9830    -0.3410 hc         1 LGN       0.035700
    147 HBI          9.0780     8.5220     1.6090 hc         1 LGN       0.037700
    148 HBIA        10.4830     7.5720     2.0920 hc         1 LGN       0.037700
    149 HBJ         11.6020     8.1200    -0.0910 hc         1 LGN       0.036700
    150 HBJA        10.1970     9.0720    -0.5720 hc         1 LGN       0.036700
    151 HBK         10.5720    10.6110     1.3790 hc         1 LGN       0.037700
    152 HBKA        11.9750     9.6570     1.8620 hc         1 LGN       0.037700
    153 HBL         13.0980    10.2030    -0.3190 hc         1 LGN       0.036700
    154 HBLA        11.6950    11.1580    -0.8020 hc         1 LGN       0.036700
    155 HBM         12.0700    12.6970     1.1480 hc         1 LGN       0.037200
    156 HBMA        13.4710    11.7410     1.6340 hc         1 LGN       0.037200
    157 HBN         14.5980    12.2840    -0.5450 hc         1 LGN       0.036700
    158 HBNA        13.1980    13.2400    -1.0320 hc         1 LGN       0.036700
    159 HBO         13.5720    14.7800     0.9180 hc         1 LGN       0.037200
    160 HBOA        14.9700    13.8230     1.4070 hc         1 LGN       0.037200
    161 HBP         16.1000    14.3620    -0.7730 hc         1 LGN       0.036700
    162 HBPA        14.7020    15.3210    -1.2600 hc         1 LGN       0.036700
    163 HBQ         15.0780    16.8600     0.6900 hc         1 LGN       0.036700
    164 HBQA        16.4750    15.9000     1.1800 hc         1 LGN       0.036700
    165 HBR         17.6070    16.4370    -0.9990 hc         1 LGN       0.036700
    166 HBRA        16.2110    17.3990    -1.4870 hc         1 LGN       0.036700
    167 HBS         16.5910    18.9410     0.4620 hc         1 LGN       0.036700
    168 HBSA        17.9860    17.9790     0.9520 hc         1 LGN       0.036700
    169 HBT         18.7090    20.0050    -0.3030 hc         1 LGN       0.031367
    170 HBTA        19.1450    18.5410    -1.2110 hc         1 LGN       0.031367
    171 HBTB        17.7380    19.5110    -1.7070 hc         1 LGN       0.031367
    172 HBU         -4.1270    -3.8050     2.0800 h1         1 LGN       0.067700
    173 HBUA        -5.5660    -4.4830     1.3150 h1         1 LGN       0.067700
    174 HBX          0.9070     6.4430    -0.7320 h2         1 LGN       0.065700
    175 HBZ          2.6970     7.8070    -1.5880 h1         1 LGN       0.068700
    176 HOCA         3.3270     6.5840    -3.5070 ho         1 LGN       0.510000
    177 HCB          4.5350     5.3660    -1.3230 h1         1 LGN       0.072700
    178 HOCC         6.0590     6.6430    -2.2590 ho         1 LGN       0.467000
    179 HCD          5.6870     6.5710     0.4520 h1         1 LGN       0.052700
    180 HOCE         4.9390     8.6470    -0.6260 ho         1 LGN       0.521000
    181 HCF          3.8120     5.1270     1.1170 h1         1 LGN       0.077700
    182 HCH         -1.1940     1.9970    -0.0280 h2         1 LGN       0.022700
    183 HCI          1.5590     2.1160    -1.3630 h1         1 LGN       0.081700
    184 HOCJ         1.5230     1.1050     0.7300 ho         1 LGN       0.516000
    185 HCL         -2.0160     3.6960    -1.4210 h1         1 LGN       0.044700
    186 HCM         -2.2590     4.7280    -3.6820 h1         1 LGN       0.036700
    187 HCMA        -1.3690     3.3770    -4.3980 h1         1 LGN       0.036700
    188 HOCN        -3.6190     3.0430    -4.6110 ho         1 LGN       0.505000
    189 HCO         -0.3590     5.3550    -2.0460 h1         1 LGN       0.027700
    190 HOCP         1.5820     4.8640    -3.0570 ho         1 LGN       0.528000
    191 HCQ          0.0340     4.3220     0.1140 h1         1 LGN       0.058700
    192 HDA          4.9360     6.4260     2.9200 h1         1 LGN       0.035200
    193 H116         3.7600     7.7310     2.7280 h1         1 LGN       0.035200
    194 H117         3.1570     6.3930     4.4700 ho         1 LGN       0.501000
    195 HAP         -4.3130    -6.4850    -0.6480 h1         1 LGN       0.079700
    196 CAO         -3.8960    -8.2550     0.4710 c2         1 LGN      -0.262200
    197 HAO         -3.5860    -8.5330     1.4800 ha         1 LGN       0.182000
    198 CAN         -3.7340    -9.1120    -0.5510 c2         1 LGN      -0.201200
@<TRIPOS>BOND
     1     1     2 1   
     2     1     3 1   
     3     1    10 1   
     4     1    80 1   
     5     2    57 1   
     6     3     4 1   
     7     3     5 1   
     8     3    81 1   
     9     4    82 1   
    10     5     6 1   
    11     5     7 1   
    12     5    83 1   
    13     6    84 1   
    14     7     8 1   
    15     7     9 1   
    16     7    85 1   
    17     8    67 1   
    18     9    10 1   
    19     9    11 1   
    20     9    86 1   
    21    11    12 1   
    22    11    87 1   
    23    11    88 1   
    24    12    89 1   
    25    13    14 1   
    26    13    90 1   
    27    13    91 1   
    28    13    92 1   
    29    14    15 1   
    30    14    93 1   
    31    14    94 1   
    32    15    16 1   
    33    15    95 1   
    34    15    96 1   
    35    16    17 1   
    36    16    97 1   
    37    16    98 1   
    38    17    18 1   
    39    17    99 1   
    40    17   100 1   
    41    18    19 1   
    42    18   101 1   
    43    18   102 1   
    44    19    20 1   
    45    19   103 1   
    46    19   104 1   
    47    20    21 1   
    48    20   105 1   
    49    20   106 1   
    50    21    22 1   
    51    21   107 1   
    52    21   108 1   
    53    22    23 1   
    54    22   109 1   
    55    22   110 1   
    56    23    24 1   
    57    23   111 1   
    58    23   112 1   
    59    24    25 1   
    60    24   113 1   
    61    24   114 1   
    62    25   115 1   
    63    25   116 1   
    64    25   198 1   
    65    26    27 1   
    66    26    28 1   
    67    26   195 1   
    68    26   196 1   
    69    27   118 1   
    70    28    29 1   
    71    28    57 1   
    72    28   119 1   
    73    29    30 1   
    74    29   120 1   
    75    30    31 2   
    76    30    32 1   
    77    32    33 1   
    78    32   121 1   
    79    32   122 1   
    80    33    34 1   
    81    33   123 1   
    82    33   124 1   
    83    34    35 1   
    84    34   125 1   
    85    34   126 1   
    86    35    36 1   
    87    35   127 1   
    88    35   128 1   
    89    36    37 1   
    90    36   129 1   
    91    36   130 1   
    92    37    38 1   
    93    37   131 1   
    94    37   132 1   
    95    38    39 1   
    96    38   133 1   
    97    38   134 1   
    98    39    40 1   
    99    39   135 1   
   100    39   136 1   
   101    40    41 1   
   102    40   137 1   
   103    40   138 1   
   104    41    42 1   
   105    41   139 1   
   106    41   140 1   
   107    42    43 1   
   108    42   141 1   
   109    42   142 1   
   110    43    44 1   
   111    43   143 1   
   112    43   144 1   
   113    44    45 1   
   114    44   145 1   
   115    44   146 1   
   116    45    46 1   
   117    45   147 1   
   118    45   148 1   
   119    46    47 1   
   120    46   149 1   
   121    46   150 1   
   122    47    48 1   
   123    47   151 1   
   124    47   152 1   
   125    48    49 1   
   126    48   153 1   
   127    48   154 1   
   128    49    50 1   
   129    49   155 1   
   130    49   156 1   
   131    50    51 1   
   132    50   157 1   
   133    50   158 1   
   134    51    52 1   
   135    51   159 1   
   136    51   160 1   
   137    52    53 1   
   138    52   161 1   
   139    52   162 1   
   140    53    54 1   
   141    53   163 1   
   142    53   164 1   
   143    54    55 1   
   144    54   165 1   
   145    54   166 1   
   146    55    56 1   
   147    55   167 1   
   148    55   168 1   
   149    56   169 1   
   150    56   170 1   
   151    56   171 1   
   152    57   172 1   
   153    57   173 1   
   154    58    59 1   
   155    58    60 1   
   156    58    77 1   
   157    58   174 1   
   158    59    66 1   
   159    60    61 1   
   160    60    62 1   
   161    60   175 1   
   162    61   176 1   
   163    62    63 1   
   164    62    64 1   
   165    62   177 1   
   166    63   178 1   
   167    64    65 1   
   168    64    66 1   
   169    64   179 1   
   170    65   180 1   
   171    66    78 1   
   172    66   181 1   
   173    67    68 1   
   174    67    70 1   
   175    67   182 1   
   176    68    69 1   
   177    68    76 1   
   178    68   183 1   
   179    69   184 1   
   180    70    71 1   
   181    71    72 1   
   182    71    74 1   
   183    71   185 1   
   184    72    73 1   
   185    72   186 1   
   186    72   187 1   
   187    73   188 1   
   188    74    75 1   
   189    74    76 1   
   190    74   189 1   
   191    75   190 1   
   192    76    77 1   
   193    76   191 1   
   194    78    79 1   
   195    78   192 1   
   196    78   193 1   
   197    79   194 1   
   198   117   198 1   
   199   196   197 1   
   200   196   198 2   
@<TRIPOS>SUBSTRUCTURE
     1 LGN         1 TEMP              0 ****  ****    0 ROOT
