@<TRIPOS>MOLECULE
LGN
  198   200     1     0     0
SMALL
abcg2


@<TRIPOS>ATOM
      1 C1          -3.8540    -2.5430    -0.2660 c6         1 LGN       0.367300
      2 O1          -4.9340    -3.3990    -0.2780 os         1 LGN      -0.440000
      3 C2          -3.4810    -2.1210    -1.6820 c6         1 LGN       0.097300
      4 O2          -3.1330    -3.2310    -2.4840 oh         1 LGN      -0.739000
      5 C3          -2.2600    -1.2100    -1.6000 c6         1 LGN       0.159300
      6 O3          -1.8960    -0.7130    -2.8540 oh         1 LGN      -0.686000
      7 C4          -2.5210    -0.0400    -0.6580 c6         1 LGN       0.150300
      8 O4          -1.2980     0.6290    -0.4170 os         1 LGN      -0.443000
      9 C5          -3.0810    -0.5470     0.6810 c6         1 LGN       0.156300
     10 O5          -4.1910    -1.3940     0.4630 os         1 LGN      -0.452000
     11 C6          -3.5410     0.5810     1.5800 c3         1 LGN       0.167600
     12 O6          -3.9490     0.0350     2.8110 oh         1 LGN      -0.707000
     13 CAA         -1.6850   -24.5790     0.7410 c3         1 LGN      -0.088100
     14 CAB         -2.2170   -23.2490     1.2570 c3         1 LGN      -0.075400
     15 CAC         -2.1860   -22.1480     0.2040 c3         1 LGN      -0.075400
     16 CAD         -2.7160   -20.8120     0.7120 c3         1 LGN      -0.074400
     17 CAE         -2.6840   -19.7100    -0.3400 c3         1 LGN      -0.074400
     18 CAF         -3.2170   -18.3770     0.1700 c3         1 LGN      -0.074400
     19 CAG         -3.1850   -17.2710    -0.8780 c3         1 LGN      -0.074400
     20 CAH         -3.7210   -15.9410    -0.3620 c3         1 LGN      -0.074400
     21 CAI         -3.6910   -14.8300    -1.4050 c3         1 LGN      -0.073400
     22 CAJ         -4.2310   -13.5050    -0.8830 c3         1 LGN      -0.074400
     23 CAK         -4.2030   -12.3890    -1.9190 c3         1 LGN      -0.074400
     24 CAL         -4.7470   -11.0690    -1.3870 c3         1 LGN      -0.073400
     25 CAM         -4.7120    -9.9450    -2.4230 c3         1 LGN      -0.044200
     26 CAP         -5.1870    -6.2720    -1.1550 c3         1 LGN       0.202500
     27 OAQ         -6.5330    -6.3710    -0.7730 oh         1 LGN      -0.645000
     28 CAR         -4.3150    -5.7430     0.0060 c3         1 LGN       0.049700
     29 NAS         -2.9710    -5.5100    -0.4730 ns         1 LGN      -0.517900
     30 CAT         -1.8420    -5.8380     0.1870 c          1 LGN       0.600100
     31 OAU         -1.8270    -6.4980     1.2160 o          1 LGN      -0.604100
     32 CAV         -0.5830    -5.2600    -0.4220 c3         1 LGN      -0.161400
     33 CAW         -0.0650    -4.0960     0.4340 c3         1 LGN      -0.069400
     34 CAX          0.8960    -3.1880    -0.3220 c3         1 LGN      -0.078400
     35 CAY          1.3210    -1.9720     0.4900 c3         1 LGN      -0.072400
     36 CAZ          2.1320    -0.9690    -0.3230 c3         1 LGN      -0.079400
     37 CBA          2.8180     0.0880     0.5310 c3         1 LGN      -0.071400
     38 CBB          3.6230     1.0910    -0.2860 c3         1 LGN      -0.078400
     39 CBC          4.4280     2.0590     0.5720 c3         1 LGN      -0.073400
     40 CBD          5.2650     3.0340    -0.2470 c3         1 LGN      -0.077400
     41 CBE          6.2290     3.8570     0.5990 c3         1 LGN      -0.078400
     42 CBF          7.0560     4.8400    -0.2180 c3         1 LGN      -0.072400
     43 CBG          7.9900     5.6960     0.6300 c3         1 LGN      -0.078400
     44 CBH          8.8740     6.6210    -0.1970 c3         1 LGN      -0.073400
     45 CBI          9.8100     7.4760     0.6490 c3         1 LGN      -0.074400
     46 CBJ         10.7360     8.3560    -0.1820 c3         1 LGN      -0.074400
     47 CBK         11.6850     9.2000     0.6610 c3         1 LGN      -0.074400
     48 CBL         12.6370    10.0490    -0.1720 c3         1 LGN      -0.074400
     49 CBM         13.5970    10.8810     0.6700 c3         1 LGN      -0.074400
     50 CBN         14.5630    11.7140    -0.1640 c3         1 LGN      -0.074400
     51 CBO         15.5290    12.5390     0.6780 c3         1 LGN      -0.074400
     52 CBP         16.5010    13.3650    -0.1550 c3         1 LGN      -0.074400
     53 CBQ         17.4680    14.1890     0.6870 c3         1 LGN      -0.074400
     54 CBR         18.4420    15.0130    -0.1470 c3         1 LGN      -0.075400
     55 CBS         19.4040    15.8430     0.6950 c3         1 LGN      -0.075400
     56 CBT         20.3730    16.6630    -0.1470 c3         1 LGN      -0.088100
     57 CBU         -4.8880    -4.4770     0.6450 c3         1 LGN       0.149600
     58 CBX          0.9310     5.9890     0.8830 c6         1 LGN       0.367300
     59 OBY          0.5890     6.1550     2.2250 os         1 LGN      -0.437000
     60 CBZ          2.2750     6.6560     0.5770 c6         1 LGN       0.103300
     61 OCA          2.6840     6.4060    -0.7520 oh         1 LGN      -0.727000
     62 CCB          3.3460     6.1270     1.5170 c6         1 LGN       0.134300
     63 OCC          4.5600     6.8260     1.3680 oh         1 LGN      -0.673000
     64 CCD          2.8970     6.2880     2.9670 c6         1 LGN       0.147300
     65 OCE          2.8050     7.6440     3.3320 oh         1 LGN      -0.717000
     66 CCF          1.5340     5.6320     3.1470 c6         1 LGN       0.171300
     67 CCH         -1.2620     1.9880    -0.6550 c6         1 LGN       0.365300
     68 CCI         -0.1180     2.5910     0.1650 c6         1 LGN       0.147300
     69 OCJ         -0.3050     2.3950     1.5410 oh         1 LGN      -0.703000
     70 OCK         -1.0520     2.2080    -2.0180 os         1 LGN      -0.435000
     71 CCL         -1.0830     3.5800    -2.3490 c6         1 LGN       0.184300
     72 CCM         -0.9800     3.7210    -3.8520 c3         1 LGN       0.174600
     73 OCN         -2.1640     3.2320    -4.4350 oh         1 LGN      -0.713000
     74 CCO          0.0130     4.3480    -1.6220 c6         1 LGN       0.114300
     75 OCP          1.2710     3.9720    -2.1210 oh         1 LGN      -0.707000
     76 CCQ         -0.0850     4.0820    -0.1150 c6         1 LGN       0.147300
     77 OCR          1.0260     4.6420     0.5410 os         1 LGN      -0.464000
     78 CDA          0.9890     5.8340     4.5450 c3         1 LGN       0.171600
     79 ODA         -0.1440     5.0150     4.7140 oh         1 LGN      -0.710000
     80 H1          -2.9830    -3.0250     0.2100 h2         1 LGN       0.034700
     81 H2          -4.3220    -1.5700    -2.1210 h1         1 LGN       0.074700
     82 HO2         -3.8890    -3.4790    -3.0240 ho         1 LGN       0.524000
     83 H3          -1.4410    -1.8020    -1.1570 h1         1 LGN       0.048700
     84 HO3         -1.7040    -1.4660    -3.4240 ho         1 LGN       0.513000
     85 H4          -3.2530     0.6330    -1.1270 h1         1 LGN       0.075700
     86 H5          -2.2770    -1.1070     1.1930 h1         1 LGN       0.056700
     87 H6          -2.7200     1.2930     1.7130 h1         1 LGN       0.034700
     88 H6A         -4.3580     1.1220     1.0810 h1         1 LGN       0.034700
     89 HO6         -4.1890     0.7630     3.3910 ho         1 LGN       0.507000
     90 HAA         -0.6470   -24.4920     0.4170 hc         1 LGN       0.031367
     91 HAAA        -1.7270   -25.3530     1.5080 hc         1 LGN       0.031367
     92 HAAB        -2.2670   -24.9290    -0.1140 hc         1 LGN       0.031367
     93 HAB         -3.2430   -23.3800     1.6140 hc         1 LGN       0.036700
     94 HABA        -1.6330   -22.9330     2.1280 hc         1 LGN       0.036700
     95 HAC         -1.1580   -22.0190    -0.1520 hc         1 LGN       0.036700
     96 HACA        -2.7700   -22.4640    -0.6670 hc         1 LGN       0.036700
     97 HAD         -3.7440   -20.9430     1.0670 hc         1 LGN       0.036700
     98 HADA        -2.1320   -20.4980     1.5840 hc         1 LGN       0.036700
     99 HAE         -1.6560   -19.5780    -0.6950 hc         1 LGN       0.036700
    100 HAEA        -3.2670   -20.0250    -1.2130 hc         1 LGN       0.036700
    101 HAF         -4.2450   -18.5100     0.5230 hc         1 LGN       0.037200
    102 HAFA        -2.6350   -18.0640     1.0440 hc         1 LGN       0.037200
    103 HAG         -2.1560   -17.1360    -1.2300 hc         1 LGN       0.036700
    104 HAGA        -3.7660   -17.5830    -1.7530 hc         1 LGN       0.036700
    105 HAH         -4.7500   -16.0780    -0.0110 hc         1 LGN       0.037200
    106 HAHA        -3.1410   -15.6310     0.5140 hc         1 LGN       0.037200
    107 HAI         -2.6620   -14.6900    -1.7550 hc         1 LGN       0.037200
    108 HAIA        -4.2700   -15.1390    -2.2820 hc         1 LGN       0.037200
    109 HAJ         -5.2600   -13.6460    -0.5330 hc         1 LGN       0.038200
    110 HAJA        -3.6530   -13.1980    -0.0040 hc         1 LGN       0.038200
    111 HAK         -3.1750   -12.2430    -2.2680 hc         1 LGN       0.037200
    112 HAKA        -4.7810   -12.6930    -2.7990 hc         1 LGN       0.037200
    113 HAL         -5.7780   -11.2130    -1.0450 hc         1 LGN       0.041200
    114 HALA        -4.1730   -10.7620    -0.5070 hc         1 LGN       0.041200
    115 HAM         -3.6810    -9.7700    -2.7440 hc         1 LGN       0.045200
    116 HAMA        -5.2670   -10.2680    -3.3110 hc         1 LGN       0.045200
    117 HAN         -6.3680    -8.7190    -1.6610 ha         1 LGN       0.171000
    118 HOAQ        -6.6160    -7.0630    -0.1070 ho         1 LGN       0.441000
    119 HAR         -4.2690    -6.5100     0.7850 h1         1 LGN       0.086700
    120 HNAS        -2.8780    -4.9090    -1.2830 hn         1 LGN       0.331500
    121 HAV          0.1770    -6.0400    -0.4900 hc         1 LGN       0.063200
    122 HAVA        -0.7710    -4.9090    -1.4400 hc         1 LGN       0.063200
    123 HAW         -0.9080    -3.4890     0.7830 hc         1 LGN       0.046200
    124 HAWA         0.4130    -4.4820     1.3370 hc         1 LGN       0.046200
    125 HAX          1.7810    -3.7530    -0.6310 hc         1 LGN       0.039700
    126 HAXA         0.4160    -2.8550    -1.2500 hc         1 LGN       0.039700
    127 HAY          0.4320    -1.4720     0.8920 hc         1 LGN       0.037200
    128 HAYA         1.9020    -2.3030     1.3580 hc         1 LGN       0.037200
    129 HAZ          2.8960    -1.5030    -0.9000 hc         1 LGN       0.045200
    130 HAZA         1.4750    -0.4870    -1.0560 hc         1 LGN       0.045200
    131 HBA          2.0760     0.6200     1.1390 hc         1 LGN       0.033200
    132 HBAA         3.4840    -0.4100     1.2440 hc         1 LGN       0.033200
    133 HBB          4.3090     0.5470    -0.9450 hc         1 LGN       0.043200
    134 HBBA         2.9550     1.6550    -0.9470 hc         1 LGN       0.043200
    135 HBC          3.7490     2.6200     1.2260 hc         1 LGN       0.036200
    136 HBCA         5.0860     1.4860     1.2340 hc         1 LGN       0.036200
    137 HBD          5.8360     2.4780    -1.0000 hc         1 LGN       0.039200
    138 HBDA         4.6020     3.7070    -0.8030 hc         1 LGN       0.039200
    139 HBE          5.6730     4.4030     1.3680 hc         1 LGN       0.038700
    140 HBEA         6.9020     3.1800     1.1390 hc         1 LGN       0.038700
    141 HBF          7.6430     4.2890    -0.9620 hc         1 LGN       0.033700
    142 HBFA         6.3870     5.4920    -0.7930 hc         1 LGN       0.033700
    143 HBG          7.3950     6.2870     1.3340 hc         1 LGN       0.041200
    144 HBGA         8.6240     5.0420     1.2400 hc         1 LGN       0.041200
    145 HBH          9.4670     6.0210    -0.8960 hc         1 LGN       0.035700
    146 HBHA         8.2450     7.2720    -0.8130 hc         1 LGN       0.035700
    147 HBI          9.2180     8.1050     1.3240 hc         1 LGN       0.037700
    148 HBIA        10.4130     6.8240     1.2910 hc         1 LGN       0.037700
    149 HBJ         11.3210     7.7230    -0.8580 hc         1 LGN       0.036700
    150 HBJA        10.1380     9.0130    -0.8220 hc         1 LGN       0.036700
    151 HBK         11.1030     9.8500     1.3240 hc         1 LGN       0.037700
    152 HBKA        12.2670     8.5410     1.3170 hc         1 LGN       0.037700
    153 HBL         13.2130     9.3960    -0.8370 hc         1 LGN       0.036700
    154 HBLA        12.0580    10.7120    -0.8240 hc         1 LGN       0.036700
    155 HBM         13.0230    11.5430     1.3290 hc         1 LGN       0.037200
    156 HBMA        14.1670    10.2170     1.3300 hc         1 LGN       0.037200
    157 HBN         15.1340    11.0510    -0.8240 hc         1 LGN       0.036700
    158 HBNA        13.9940    12.3810    -0.8210 hc         1 LGN       0.036700
    159 HBO         14.9590    13.2060     1.3350 hc         1 LGN       0.037200
    160 HBOA        16.0940    11.8720     1.3390 hc         1 LGN       0.037200
    161 HBP         17.0710    12.6980    -0.8120 hc         1 LGN       0.036700
    162 HBPA        15.9370    14.0320    -0.8160 hc         1 LGN       0.036700
    163 HBQ         16.8980    14.8570     1.3430 hc         1 LGN       0.036700
    164 HBQA        18.0310    13.5210     1.3480 hc         1 LGN       0.036700
    165 HBR         19.0150    14.3450    -0.8000 hc         1 LGN       0.036700
    166 HBRA        17.8790    15.6780    -0.8110 hc         1 LGN       0.036700
    167 HBS         18.8310    16.5090     1.3480 hc         1 LGN       0.036700
    168 HBSA        19.9680    15.1790     1.3590 hc         1 LGN       0.036700
    169 HBT         21.0420    17.2570     0.4760 hc         1 LGN       0.031367
    170 HBTA        20.9910    16.0190    -0.7740 hc         1 LGN       0.031367
    171 HBTB        19.8390    17.3500    -0.8060 hc         1 LGN       0.031367
    172 HBU         -4.2880    -4.2130     1.5230 h1         1 LGN       0.067700
    173 HBUA        -5.9040    -4.6560     0.9940 h1         1 LGN       0.067700
    174 HBX          0.1350     6.4890     0.3170 h2         1 LGN       0.065700
    175 HBZ          2.1580     7.7320     0.7470 h1         1 LGN       0.068700
    176 HOCA         2.3520     7.1070    -1.3200 ho         1 LGN       0.510000
    177 HCB          3.4880     5.0540     1.3240 h1         1 LGN       0.072700
    178 HOCC         4.8080     6.8110     0.4370 ho         1 LGN       0.467000
    179 HCD          3.6130     5.7540     3.6100 h1         1 LGN       0.052700
    180 HOCE         3.6430     8.0660     3.1160 ho         1 LGN       0.521000
    181 HCF          1.6630     4.5540     2.9840 h1         1 LGN       0.077700
    182 HCH         -2.2130     2.4650    -0.3450 h2         1 LGN       0.022700
    183 HCI          0.8230     2.1420    -0.1810 h1         1 LGN       0.081700
    184 HOCJ        -0.1920     1.4580     1.7280 ho         1 LGN       0.516000
    185 HCL         -2.0420     4.0230    -2.0280 h1         1 LGN       0.044700
    186 HCM         -0.8250     4.7840    -4.0820 h1         1 LGN       0.036700
    187 HCMA        -0.0970     3.1810    -4.2110 h1         1 LGN       0.036700
    188 HOCN        -2.0670     3.2820    -5.3900 ho         1 LGN       0.505000
    189 HCO         -0.1760     5.4180    -1.7960 h1         1 LGN       0.027700
    190 HOCP         1.9290     4.5130    -1.6640 ho         1 LGN       0.528000
    191 HCQ         -1.0220     4.5260     0.2550 h1         1 LGN       0.058700
    192 HDA          1.7850     5.5740     5.2550 h1         1 LGN       0.035200
    193 H116         0.7510     6.8920     4.7020 h1         1 LGN       0.035200
    194 H117        -0.4890     5.1710     5.5970 ho         1 LGN       0.501000
    195 HAP         -5.1680    -5.5190    -1.9530 h1         1 LGN       0.079700
    196 CAO         -4.6250    -7.5530    -1.7050 c2         1 LGN      -0.262200
    197 HAO         -3.5710    -7.5270    -1.9640 ha         1 LGN       0.182000
    198 CAN         -5.3080    -8.6760    -1.9000 c2         1 LGN      -0.201200
@<TRIPOS>BOND
     1     1     2 1   
     2     1     3 1   
     3     1    10 1   
     4     1    80 1   
     5     2    57 1   
     6     3     4 1   
     7     3     5 1   
     8     3    81 1   
     9     4    82 1   
    10     5     6 1   
    11     5     7 1   
    12     5    83 1   
    13     6    84 1   
    14     7     8 1   
    15     7     9 1   
    16     7    85 1   
    17     8    67 1   
    18     9    10 1   
    19     9    11 1   
    20     9    86 1   
    21    11    12 1   
    22    11    87 1   
    23    11    88 1   
    24    12    89 1   
    25    13    14 1   
    26    13    90 1   
    27    13    91 1   
    28    13    92 1   
    29    14    15 1   
    30    14    93 1   
    31    14    94 1   
    32    15    16 1   
    33    15    95 1   
    34    15    96 1   
    35    16    17 1   
    36    16    97 1   
    37    16    98 1   
    38    17    18 1   
    39    17    99 1   
    40    17   100 1   
    41    18    19 1   
    42    18   101 1   
    43    18   102 1   
    44    19    20 1   
    45    19   103 1   
    46    19   104 1   
    47    20    21 1   
    48    20   105 1   
    49    20   106 1   
    50    21    22 1   
    51    21   107 1   
    52    21   108 1   
    53    22    23 1   
    54    22   109 1   
    55    22   110 1   
    56    23    24 1   
    57    23   111 1   
    58    23   112 1   
    59    24    25 1   
    60    24   113 1   
    61    24   114 1   
    62    25   115 1   
    63    25   116 1   
    64    25   198 1   
    65    26    27 1   
    66    26    28 1   
    67    26   195 1   
    68    26   196 1   
    69    27   118 1   
    70    28    29 1   
    71    28    57 1   
    72    28   119 1   
    73    29    30 1   
    74    29   120 1   
    75    30    31 2   
    76    30    32 1   
    77    32    33 1   
    78    32   121 1   
    79    32   122 1   
    80    33    34 1   
    81    33   123 1   
    82    33   124 1   
    83    34    35 1   
    84    34   125 1   
    85    34   126 1   
    86    35    36 1   
    87    35   127 1   
    88    35   128 1   
    89    36    37 1   
    90    36   129 1   
    91    36   130 1   
    92    37    38 1   
    93    37   131 1   
    94    37   132 1   
    95    38    39 1   
    96    38   133 1   
    97    38   134 1   
    98    39    40 1   
    99    39   135 1   
   100    39   136 1   
   101    40    41 1   
   102    40   137 1   
   103    40   138 1   
   104    41    42 1   
   105    41   139 1   
   106    41   140 1   
   107    42    43 1   
   108    42   141 1   
   109    42   142 1   
   110    43    44 1   
   111    43   143 1   
   112    43   144 1   
   113    44    45 1   
   114    44   145 1   
   115    44   146 1   
   116    45    46 1   
   117    45   147 1   
   118    45   148 1   
   119    46    47 1   
   120    46   149 1   
   121    46   150 1   
   122    47    48 1   
   123    47   151 1   
   124    47   152 1   
   125    48    49 1   
   126    48   153 1   
   127    48   154 1   
   128    49    50 1   
   129    49   155 1   
   130    49   156 1   
   131    50    51 1   
   132    50   157 1   
   133    50   158 1   
   134    51    52 1   
   135    51   159 1   
   136    51   160 1   
   137    52    53 1   
   138    52   161 1   
   139    52   162 1   
   140    53    54 1   
   141    53   163 1   
   142    53   164 1   
   143    54    55 1   
   144    54   165 1   
   145    54   166 1   
   146    55    56 1   
   147    55   167 1   
   148    55   168 1   
   149    56   169 1   
   150    56   170 1   
   151    56   171 1   
   152    57   172 1   
   153    57   173 1   
   154    58    59 1   
   155    58    60 1   
   156    58    77 1   
   157    58   174 1   
   158    59    66 1   
   159    60    61 1   
   160    60    62 1   
   161    60   175 1   
   162    61   176 1   
   163    62    63 1   
   164    62    64 1   
   165    62   177 1   
   166    63   178 1   
   167    64    65 1   
   168    64    66 1   
   169    64   179 1   
   170    65   180 1   
   171    66    78 1   
   172    66   181 1   
   173    67    68 1   
   174    67    70 1   
   175    67   182 1   
   176    68    69 1   
   177    68    76 1   
   178    68   183 1   
   179    69   184 1   
   180    70    71 1   
   181    71    72 1   
   182    71    74 1   
   183    71   185 1   
   184    72    73 1   
   185    72   186 1   
   186    72   187 1   
   187    73   188 1   
   188    74    75 1   
   189    74    76 1   
   190    74   189 1   
   191    75   190 1   
   192    76    77 1   
   193    76   191 1   
   194    78    79 1   
   195    78   192 1   
   196    78   193 1   
   197    79   194 1   
   198   117   198 1   
   199   196   197 1   
   200   196   198 2   
@<TRIPOS>SUBSTRUCTURE
     1 LGN         1 TEMP              0 ****  ****    0 ROOT
