@<TRIPOS>MOLECULE
LGQ
   40    43     1     0     0
SMALL
bcc


@<TRIPOS>ATOM
      1 N1          -1.0690    -0.7130    -0.3660 nu         1 LGQ      -0.702600
      2 N3           1.1110     1.9740    -0.2320 na         1 LGQ      -0.106800
      3 C4          -2.9360     0.7320     0.3060 ca         1 LGQ      -0.194500
      4 C5          -5.1810    -0.1490     0.1460 ca         1 LGQ      -0.243300
      5 C6          -4.3020     0.8750     0.4760 ca         1 LGQ      -0.039000
      6 C7          -0.0130     0.1650    -0.2810 cc         1 LGQ       0.622800
      7 C8           1.3590    -0.2020    -0.1640 ca         1 LGQ      -0.556500
      8 C10          2.1670    -1.3490    -0.0230 ca         1 LGQ       0.794200
      9 C13          6.2630    -1.0520     0.2210 ca         1 LGQ      -0.078500
     10 C15          7.6470    -0.9780     0.2820 ca         1 LGQ      -0.147500
     11 C17          8.2850     0.2520     0.1930 ca         1 LGQ      -0.105000
     12 C1          -3.3080    -1.4920    -0.5360 ca         1 LGQ      -0.194500
     13 C2          -2.4160    -0.4640    -0.2020 ca         1 LGQ       0.214600
     14 N2          -0.1380     1.4680    -0.3220 nd         1 LGQ      -0.570100
     15 C3          -4.6680    -1.3370    -0.3670 ca         1 LGQ      -0.039000
     16 N4           3.4880    -1.1950     0.0430 nb         1 LGQ      -0.839000
     17 N5           3.3630     1.1750    -0.0750 nb         1 LGQ      -0.766000
     18 N6           1.6820    -2.5950     0.0310 nv         1 LGQ      -0.954500
     19 C9           2.0430     1.0170    -0.1540 ca         1 LGQ       0.520800
     20 C11          4.0200     0.0300     0.0050 cp         1 LGQ       0.811500
     21 C12          5.4980     0.1050     0.0710 cp         1 LGQ      -0.160500
     22 C14          6.1480     1.3370    -0.0160 ca         1 LGQ      -0.078500
     23 C16          7.5310     1.4090     0.0430 ca         1 LGQ      -0.147500
     24 F1          -7.3160    -1.1050     0.3970 f          1 LGQ      -0.238300
     25 F2          -6.9590     0.7820     1.3720 f          1 LGQ      -0.238300
     26 F3          -7.1820     0.6990    -0.7620 f          1 LGQ      -0.238300
     27 HN1         -0.8510    -1.6040    -0.7800 hn         1 LGQ       0.439800
     28 H1           1.2480     2.9720    -0.2390 hn         1 LGQ       0.341700
     29 H2          -2.2850     1.5510     0.5640 ha         1 LGQ       0.148500
     30 H3          -4.6680     1.8120     0.8750 ha         1 LGQ       0.146500
     31 H4           5.7700    -2.0120     0.2910 ha         1 LGQ       0.151000
     32 H5           8.2280    -1.8830     0.4010 ha         1 LGQ       0.132500
     33 H6           9.3650     0.3090     0.2380 ha         1 LGQ       0.131000
     34 H7          -2.9270    -2.4270    -0.9280 ha         1 LGQ       0.148500
     35 H8          -5.3190    -2.1570    -0.6380 ha         1 LGQ       0.146500
     36 H9           0.7110    -2.7710     0.2170 hn         1 LGQ       0.439300
     37 H10          2.3190    -3.3440     0.2510 hn         1 LGQ       0.439300
     38 H11          5.5640     2.2400    -0.1340 ha         1 LGQ       0.151000
     39 H12          8.0210     2.3720    -0.0290 ha         1 LGQ       0.132500
     40 C18         -6.6500     0.0510     0.2900 c3         1 LGQ       0.726200
@<TRIPOS>BOND
     1     1     6 1   
     2     1    13 1   
     3     1    27 1   
     4     2    14 1   
     5     2    19 1   
     6     2    28 1   
     7     3     5 ar  
     8     3    13 ar  
     9     3    29 1   
    10     4     5 ar  
    11     4    15 ar  
    12     4    40 1   
    13     5    30 1   
    14     6     7 1   
    15     6    14 2   
    16     7     8 ar  
    17     7    19 ar  
    18     8    16 ar  
    19     8    18 1   
    20     9    10 ar  
    21     9    21 ar  
    22     9    31 1   
    23    10    11 ar  
    24    10    32 1   
    25    11    23 ar  
    26    11    33 1   
    27    12    13 ar  
    28    12    15 ar  
    29    12    34 1   
    30    15    35 1   
    31    16    20 ar  
    32    17    19 ar  
    33    17    20 ar  
    34    18    36 1   
    35    18    37 1   
    36    20    21 1   
    37    21    22 ar  
    38    22    23 ar  
    39    22    38 1   
    40    23    39 1   
    41    24    40 1   
    42    25    40 1   
    43    26    40 1   
@<TRIPOS>SUBSTRUCTURE
     1 LGQ         1 TEMP              0 ****  ****    0 ROOT
