@<TRIPOS>MOLECULE
LGQ
   40    43     1     0     0
SMALL
No Charge or Current Charge


@<TRIPOS>ATOM
      1 N1          -1.0180    -0.5460     0.0930 nu         1 LGQ      -0.896200
      2 N3           1.0720     2.1760    -0.1780 na         1 LGQ      -0.157100
      3 C4          -3.0820     0.5790     0.7350 ca         1 LGQ      -0.176500
      4 C5          -5.2250    -0.2620    -0.0820 ca         1 LGQ      -0.243300
      5 C6          -4.4830     0.6690     0.6760 ca         1 LGQ      -0.021000
      6 C7          -0.0170     0.3670     0.1060 cc         1 LGQ       0.622800
      7 C8           1.3640     0.0380     0.1360 ca         1 LGQ      -0.425900
      8 C10          2.0660    -1.1380     0.3180 ca         1 LGQ       0.465900
      9 C13          6.2870    -1.1500     0.1250 ca         1 LGQ      -0.060500
     10 C15          7.6910    -1.1450     0.0590 ca         1 LGQ      -0.129500
     11 C17          8.3840     0.0530    -0.1640 ca         1 LGQ      -0.087000
     12 C1          -3.1350    -1.3570    -0.7190 ca         1 LGQ      -0.176500
     13 C2          -2.4020    -0.4280     0.0330 ca         1 LGQ       0.353000
     14 N2          -0.2330     1.6650    -0.0850 nd         1 LGQ      -0.570100
     15 C3          -4.5370    -1.2740    -0.7840 ca         1 LGQ      -0.021000
     16 N4           3.4040    -1.1410     0.2630 nb         1 LGQ      -0.313000
     17 N5           3.3820     1.2320    -0.1190 nb         1 LGQ      -0.240000
     18 N6           1.4780    -2.3200     0.6020 nv         1 LGQ      -1.064900
     19 C9           2.0410     1.2010    -0.0640 ca         1 LGQ       0.192500
     20 C11          4.0250     0.0470     0.0400 cp         1 LGQ       0.285500
     21 C12          5.5330     0.0490    -0.0300 cp         1 LGQ      -0.160500
     22 C14          6.2650     1.2500    -0.2560 ca         1 LGQ      -0.060500
     23 C16          7.6690     1.2500    -0.3210 ca         1 LGQ      -0.129500
     24 F1          -7.3380    -1.3690    -0.3330 f          1 LGQ      -0.117000
     25 F2          -7.2900     0.3690     0.9630 f          1 LGQ      -0.117000
     26 F3          -7.1400     0.6190    -1.1910 f          1 LGQ      -0.117000
     27 HN1         -0.6570    -1.4450    -0.2110 hn         1 LGQ       0.495000
     28 H1           1.2530     3.1680    -0.3270 hn         1 LGQ       0.392000
     29 H2          -2.5260     1.2930     1.3350 ha         1 LGQ       0.130500
     30 H3          -4.9860     1.4650     1.2230 ha         1 LGQ       0.128500
     31 H4           5.7850    -2.0990     0.3000 ha         1 LGQ       0.133000
     32 H5           8.2420    -2.0750     0.1820 ha         1 LGQ       0.114500
     33 H6           9.4710     0.0550    -0.2140 ha         1 LGQ       0.113000
     34 H7          -2.6210    -2.1440    -1.2630 ha         1 LGQ       0.130500
     35 H8          -5.0830    -2.0000    -1.3850 ha         1 LGQ       0.128500
     36 H9           0.6940    -2.2780     1.2470 hn         1 LGQ       0.494500
     37 H10          2.1120    -3.0920     0.7890 hn         1 LGQ       0.494500
     38 H11          5.7470     2.1980    -0.3830 ha         1 LGQ       0.133000
     39 H12          8.2040     2.1810    -0.4940 ha         1 LGQ       0.114500
     40 C18         -6.7520    -0.1620    -0.1590 c3         1 LGQ       0.362300
@<TRIPOS>BOND
     1     1     6 1   
     2     1    13 1   
     3     1    27 1   
     4     2    14 1   
     5     2    19 1   
     6     2    28 1   
     7     3     5 ar  
     8     3    13 ar  
     9     3    29 1   
    10     4     5 ar  
    11     4    15 ar  
    12     4    40 1   
    13     5    30 1   
    14     6     7 1   
    15     6    14 2   
    16     7     8 ar  
    17     7    19 ar  
    18     8    16 ar  
    19     8    18 1   
    20     9    10 ar  
    21     9    21 ar  
    22     9    31 1   
    23    10    11 ar  
    24    10    32 1   
    25    11    23 ar  
    26    11    33 1   
    27    12    13 ar  
    28    12    15 ar  
    29    12    34 1   
    30    15    35 1   
    31    16    20 ar  
    32    17    19 ar  
    33    17    20 ar  
    34    18    36 1   
    35    18    37 1   
    36    20    21 1   
    37    21    22 ar  
    38    22    23 ar  
    39    22    38 1   
    40    23    39 1   
    41    24    40 1   
    42    25    40 1   
    43    26    40 1   
@<TRIPOS>SUBSTRUCTURE
     1 LGQ         1 TEMP              0 ****  ****    0 ROOT
