@<TRIPOS>MOLECULE
LGR
   24    24     1     0     0
SMALL
No Charge or Current Charge


@<TRIPOS>ATOM
      1 N1          46.4900     8.4100    85.2390 n          1 LGR      -0.219400
      2 C4          46.1470     7.8760    86.5320 ca         1 LGR      -0.048000
      3 C5          47.2090     7.4410    87.3530 ca         1 LGR      -0.133000
      4 C6          46.9620     6.7550    88.5510 ca         1 LGR      -0.145000
      5 C7          45.6460     6.4590    88.9260 ca         1 LGR      -0.133000
      6 C8          44.5790     6.8440    88.0990 ca         1 LGR      -0.094000
      7 C1          47.2970     9.6470    85.2100 c3         1 LGR       0.113300
      8 C2          46.2820     7.7290    84.0110 c          1 LGR       0.622100
      9 O1          46.5830     8.2410    82.9360 o          1 LGR      -0.642100
     10 C3          45.7340     6.2960    84.0350 c3         1 LGR      -0.179100
     11 C9          44.8090     7.5400    86.8880 ca         1 LGR      -0.116600
     12 O2          43.6320     9.0590    85.5050 o          1 LGR      -0.708500
     13 O3          42.6380     7.2250    86.0230 o          1 LGR      -0.708500
     14 H1          48.2380     7.6300    87.0560 ha         1 LGR       0.097000
     15 H2          47.7910     6.4390    89.1790 ha         1 LGR       0.088000
     16 H3          45.4500     5.9250    89.8520 ha         1 LGR       0.088000
     17 H4          43.5630     6.6050    88.4030 ha         1 LGR       0.119000
     18 H5          47.3610    10.0810    86.2150 h1         1 LGR       0.034033
     19 H6          48.3100     9.4200    84.8530 h1         1 LGR       0.034033
     20 H7          46.8300    10.3800    84.5400 h1         1 LGR       0.034033
     21 H8          45.9090     5.7730    83.0880 hc         1 LGR       0.060700
     22 H9          46.1400     5.7450    84.8900 hc         1 LGR       0.060700
     23 H10         44.6600     6.3310    84.2370 hc         1 LGR       0.060700
     24 C10         43.6080     7.9700    86.0610 c          1 LGR       0.715600
@<TRIPOS>BOND
     1     1     2 1   
     2     1     7 1   
     3     1     8 1   
     4     2     3 ar  
     5     2    11 ar  
     6     3     4 ar  
     7     3    14 1   
     8     4     5 ar  
     9     4    15 1   
    10     5     6 ar  
    11     5    16 1   
    12     6    11 ar  
    13     6    17 1   
    14     7    18 1   
    15     7    19 1   
    16     7    20 1   
    17     8     9 2   
    18     8    10 1   
    19    10    21 1   
    20    10    22 1   
    21    10    23 1   
    22    11    24 1   
    23    12    24 1   
    24    13    24 1   
@<TRIPOS>SUBSTRUCTURE
     1 LGR         1 TEMP              0 ****  ****    0 ROOT
