@<TRIPOS>MOLECULE
LGR
   24    24     1     0     0
SMALL
abcg2


@<TRIPOS>ATOM
      1 N1          46.5410     8.2920    85.2230 n          1 LGR      -0.219400
      2 C4          46.2040     7.7040    86.4730 ca         1 LGR      -0.048000
      3 C5          47.2250     7.1900    87.2650 ca         1 LGR      -0.133000
      4 C6          46.9400     6.6110    88.4920 ca         1 LGR      -0.145000
      5 C7          45.6190     6.5230    88.9140 ca         1 LGR      -0.133000
      6 C8          44.6020     7.0130    88.1100 ca         1 LGR      -0.094000
      7 C1          46.9970     9.6700    85.2060 c3         1 LGR       0.113300
      8 C2          46.3860     7.6390    84.0470 c          1 LGR       0.622100
      9 O1          46.6430     8.1860    82.9840 o          1 LGR      -0.642100
     10 C3          45.8920     6.2130    84.1120 c3         1 LGR      -0.179100
     11 C9          44.8760     7.6370    86.8930 ca         1 LGR      -0.116600
     12 O2          43.8230     9.4150    85.7670 o          1 LGR      -0.708500
     13 O3          42.8140     7.4190    85.7910 o          1 LGR      -0.708500
     14 H1          48.2480     7.2420    86.9100 ha         1 LGR       0.097000
     15 H2          47.7410     6.2220    89.1070 ha         1 LGR       0.088000
     16 H3          45.3820     6.0630    89.8650 ha         1 LGR       0.088000
     17 H4          43.5740     6.9260    88.4410 ha         1 LGR       0.119000
     18 H5          47.0190    10.0420    86.2270 h1         1 LGR       0.034033
     19 H6          48.0010     9.7540    84.7890 h1         1 LGR       0.034033
     20 H7          46.3250    10.3040    84.6290 h1         1 LGR       0.034033
     21 H8          45.9500     5.7700    83.1210 hc         1 LGR       0.060700
     22 H9          46.4780     5.6060    84.8020 hc         1 LGR       0.060700
     23 H10         44.8550     6.1710    84.4480 hc         1 LGR       0.060700
     24 C10         43.7340     8.2120    86.0660 c          1 LGR       0.715600
@<TRIPOS>BOND
     1     1     2 1   
     2     1     7 1   
     3     1     8 1   
     4     2     3 ar  
     5     2    11 ar  
     6     3     4 ar  
     7     3    14 1   
     8     4     5 ar  
     9     4    15 1   
    10     5     6 ar  
    11     5    16 1   
    12     6    11 ar  
    13     6    17 1   
    14     7    18 1   
    15     7    19 1   
    16     7    20 1   
    17     8     9 2   
    18     8    10 1   
    19    10    21 1   
    20    10    22 1   
    21    10    23 1   
    22    11    24 1   
    23    12    24 1   
    24    13    24 1   
@<TRIPOS>SUBSTRUCTURE
     1 LGR         1 TEMP              0 ****  ****    0 ROOT
