@<TRIPOS>MOLECULE
LGS
   50    51     1     0     0
SMALL
abcg2


@<TRIPOS>ATOM
      1 O4           4.5630     2.3880    -1.1340 oh         1 LGS      -0.719000
      2 C4           3.9250     1.1430    -1.0500 c6         1 LGS       0.187300
      3 C5           2.8390     1.2530    -0.0020 c5         1 LGS       0.177500
      4 C6           1.6380     2.1280    -0.3210 c5         1 LGS       0.162600
      5 O6           0.5660     1.4750     0.3760 os         1 LGS      -0.458600
      6 C3           4.8770     0.0290    -0.6180 c6         1 LGS       0.139300
      7 O3           5.8700    -0.0760    -1.6080 oh         1 LGS      -0.726000
      8 C2           4.1290    -1.2930    -0.4360 c6         1 LGS       0.134300
      9 O2           5.0640    -2.2440     0.0060 oh         1 LGS      -0.725000
     10 C1           2.9680    -1.1630     0.5520 c6         1 LGS       0.445500
     11 O1           2.2270    -2.3360     0.5150 oh         1 LGS      -0.731000
     12 N1           2.1710    -0.0230     0.1370 nh         1 LGS      -0.801600
     13 C7           0.9120     0.2010     0.6240 c2         1 LGS       0.809500
     14 N2           0.2040    -0.6680     1.2150 n2         1 LGS      -0.734900
     15 C8          -1.1450    -0.3390     1.6260 c3         1 LGS       0.150800
     16 C9          -2.1680    -0.5380     0.5100 c3         1 LGS      -0.088400
     17 C10         -3.5840    -0.2030     0.9620 c3         1 LGS      -0.074400
     18 C11         -4.6220    -0.3610    -0.1410 c3         1 LGS      -0.073400
     19 C12         -6.0260     0.0360     0.3000 c3         1 LGS      -0.075400
     20 C13         -7.0680    -0.0920    -0.8040 c3         1 LGS      -0.075400
     21 C14         -8.4630     0.3380    -0.3670 c3         1 LGS      -0.074400
     22 C15         -9.4960     0.2250    -1.4800 c3         1 LGS      -0.088100
     23 H4           5.2980     2.3120    -1.7520 ho         1 LGS       0.531000
     24 HA           3.4630     0.8610    -2.0090 h1         1 LGS       0.061700
     25 H5           3.2950     1.5670     0.9510 h1         1 LGS       0.064700
     26 H3           5.3190     0.3180     0.3490 h1         1 LGS       0.051700
     27 H61C         1.7250     3.1470     0.0470 h1         1 LGS       0.075200
     28 H62C         1.4170     2.1430    -1.3920 h1         1 LGS       0.075200
     29 HB           6.5750    -0.6420    -1.2790 ho         1 LGS       0.529000
     30 H2           3.6960    -1.5770    -1.4070 h1         1 LGS       0.066700
     31 HC           4.6900    -3.1230    -0.1100 ho         1 LGS       0.529000
     32 H81C        -1.4050    -0.9940     2.4610 h1         1 LGS       0.045200
     33 H82C        -1.2270     0.6850     2.0060 h1         1 LGS       0.045200
     34 H91C        -1.9000     0.0920    -0.3440 hc         1 LGS       0.046700
     35 H92C        -2.1230    -1.5730     0.1590 hc         1 LGS       0.046700
     36 H101        -3.8590    -0.8360     1.8130 hc         1 LGS       0.036700
     37 H102        -3.6080     0.8280     1.3330 hc         1 LGS       0.036700
     38 H111        -4.3280     0.2480    -1.0030 hc         1 LGS       0.038200
     39 H112        -4.6280    -1.3980    -0.4920 hc         1 LGS       0.038200
     40 H121        -6.3270    -0.5780     1.1560 hc         1 LGS       0.036700
     41 H122        -6.0090     1.0700     0.6620 hc         1 LGS       0.036700
     42 H131        -6.7570     0.5100    -1.6660 hc         1 LGS       0.037200
     43 H132        -7.1010    -1.1280    -1.1570 hc         1 LGS       0.037200
     44 H141        -8.7770    -0.2690     0.4880 hc         1 LGS       0.036200
     45 H142        -8.4250     1.3700    -0.0070 hc         1 LGS       0.036200
     46 H151        -9.2180     0.8400    -2.3380 hc         1 LGS       0.031367
     47 H152        -9.5880    -0.8040    -1.8310 hc         1 LGS       0.031367
     48 H153       -10.4820     0.5500    -1.1470 hc         1 LGS       0.031367
     49 H154         3.3690    -0.9710     1.5650 h2         1 LGS       0.035700
     50 H155         1.3830    -2.1410     0.9740 ho         1 LGS       0.568000
@<TRIPOS>BOND
     1     1     2 1   
     2     1    23 1   
     3     2     3 1   
     4     2     6 1   
     5     2    24 1   
     6     3     4 1   
     7     3    12 1   
     8     3    25 1   
     9     4     5 1   
    10     4    27 1   
    11     4    28 1   
    12     5    13 1   
    13     6     7 1   
    14     6     8 1   
    15     6    26 1   
    16     7    29 1   
    17     8     9 1   
    18     8    10 1   
    19     8    30 1   
    20     9    31 1   
    21    10    11 1   
    22    10    12 1   
    23    10    49 1   
    24    11    50 1   
    25    12    13 1   
    26    13    14 2   
    27    14    15 1   
    28    15    16 1   
    29    15    32 1   
    30    15    33 1   
    31    16    17 1   
    32    16    34 1   
    33    16    35 1   
    34    17    18 1   
    35    17    36 1   
    36    17    37 1   
    37    18    19 1   
    38    18    38 1   
    39    18    39 1   
    40    19    20 1   
    41    19    40 1   
    42    19    41 1   
    43    20    21 1   
    44    20    42 1   
    45    20    43 1   
    46    21    22 1   
    47    21    44 1   
    48    21    45 1   
    49    22    46 1   
    50    22    47 1   
    51    22    48 1   
@<TRIPOS>SUBSTRUCTURE
     1 LGS         1 TEMP              0 ****  ****    0 ROOT
