@<TRIPOS>MOLECULE
LGS
   50    51     1     0     0
SMALL
No Charge or Current Charge


@<TRIPOS>ATOM
      1 O4           5.3220     2.2660    -0.5850 oh         1 LGS      -0.719000
      2 C4           4.3590     1.2080    -0.7360 c6         1 LGS       0.187300
      3 C5           3.2060     1.3010     0.3020 c5         1 LGS       0.177500
      4 C6           2.1390     2.4100     0.0990 c5         1 LGS       0.162600
      5 O6           0.9680     1.9010     0.7950 os         1 LGS      -0.458600
      6 C3           5.0620    -0.1780    -0.5580 c6         1 LGS       0.139300
      7 O3           6.1520    -0.3230    -1.4890 oh         1 LGS      -0.726000
      8 C2           4.0310    -1.3360    -0.7590 c6         1 LGS       0.134300
      9 O2           4.6990    -2.6230    -0.7090 oh         1 LGS      -0.725000
     10 C1           2.8510    -1.2250     0.2840 c6         1 LGS       0.445500
     11 O1           1.7920    -2.0730    -0.0800 oh         1 LGS      -0.731000
     12 N1           2.3150     0.1330     0.2810 nh         1 LGS      -0.801600
     13 C7           1.1030     0.5480     0.7510 c2         1 LGS       0.809500
     14 N2           0.1570    -0.2730     1.0230 n2         1 LGS      -0.734900
     15 C8          -1.1740     0.1570     1.4780 c3         1 LGS       0.150800
     16 C9          -2.2400    -0.2820     0.4540 c3         1 LGS      -0.088400
     17 C10         -3.6720     0.1220     0.8670 c3         1 LGS      -0.074400
     18 C11         -4.7420    -0.3150    -0.1570 c3         1 LGS      -0.073400
     19 C12         -6.1740     0.0900     0.2550 c3         1 LGS      -0.075400
     20 C13         -7.2450    -0.3470    -0.7690 c3         1 LGS      -0.075400
     21 C14         -8.6770     0.0580    -0.3570 c3         1 LGS      -0.074400
     22 C15         -9.7450    -0.3780    -1.3790 c3         1 LGS      -0.088100
     23 H4           6.1430     1.9030    -1.0010 ho         1 LGS       0.531000
     24 HA           3.9210     1.2400    -1.7460 h1         1 LGS       0.061700
     25 H5           3.6540     1.4110     1.3000 h1         1 LGS       0.064700
     26 H3           5.4440    -0.2420     0.4730 h1         1 LGS       0.051700
     27 H61C         2.4420     3.3820     0.5080 h1         1 LGS       0.075200
     28 H62C         1.8930     2.5310    -0.9650 h1         1 LGS       0.075200
     29 HB           6.2680    -1.3030    -1.5700 ho         1 LGS       0.529000
     30 H2           3.5840    -1.2000    -1.7550 h1         1 LGS       0.066700
     31 HC           3.9760    -3.2980    -0.6970 ho         1 LGS       0.529000
     32 H81C        -1.4050    -0.2990     2.4500 h1         1 LGS       0.045200
     33 H82C        -1.2380     1.2460     1.6100 h1         1 LGS       0.045200
     34 H91C        -2.0060     0.1650    -0.5200 hc         1 LGS       0.046700
     35 H92C        -2.1930    -1.3710     0.3310 hc         1 LGS       0.046700
     36 H101        -3.9040    -0.3230     1.8430 hc         1 LGS       0.036700
     37 H102        -3.7170     1.2110     0.9920 hc         1 LGS       0.036700
     38 H111        -4.5090     0.1300    -1.1330 hc         1 LGS       0.038200
     39 H112        -4.6980    -1.4040    -0.2830 hc         1 LGS       0.038200
     40 H121        -6.4070    -0.3550     1.2310 hc         1 LGS       0.036700
     41 H122        -6.2190     1.1790     0.3800 hc         1 LGS       0.036700
     42 H131        -7.0120     0.0980    -1.7450 hc         1 LGS       0.037200
     43 H132        -7.2000    -1.4360    -0.8950 hc         1 LGS       0.037200
     44 H141        -8.9140    -0.3870     0.6180 hc         1 LGS       0.036200
     45 H142        -8.7260     1.1470    -0.2330 hc         1 LGS       0.036200
     46 H151        -9.5550     0.0800    -2.3570 hc         1 LGS       0.031367
     47 H152        -9.7450    -1.4680    -1.5000 hc         1 LGS       0.031367
     48 H153       -10.7420    -0.0700    -1.0440 hc         1 LGS       0.031367
     49 H154         3.2060    -1.4630     1.2980 h2         1 LGS       0.035700
     50 H155         1.0230    -1.5570     0.2900 ho         1 LGS       0.568000
@<TRIPOS>BOND
     1     1     2 1   
     2     1    23 1   
     3     2     3 1   
     4     2     6 1   
     5     2    24 1   
     6     3     4 1   
     7     3    12 1   
     8     3    25 1   
     9     4     5 1   
    10     4    27 1   
    11     4    28 1   
    12     5    13 1   
    13     6     7 1   
    14     6     8 1   
    15     6    26 1   
    16     7    29 1   
    17     8     9 1   
    18     8    10 1   
    19     8    30 1   
    20     9    31 1   
    21    10    11 1   
    22    10    12 1   
    23    10    49 1   
    24    11    50 1   
    25    12    13 1   
    26    13    14 2   
    27    14    15 1   
    28    15    16 1   
    29    15    32 1   
    30    15    33 1   
    31    16    17 1   
    32    16    34 1   
    33    16    35 1   
    34    17    18 1   
    35    17    36 1   
    36    17    37 1   
    37    18    19 1   
    38    18    38 1   
    39    18    39 1   
    40    19    20 1   
    41    19    40 1   
    42    19    41 1   
    43    20    21 1   
    44    20    42 1   
    45    20    43 1   
    46    21    22 1   
    47    21    44 1   
    48    21    45 1   
    49    22    46 1   
    50    22    47 1   
    51    22    48 1   
@<TRIPOS>SUBSTRUCTURE
     1 LGS         1 TEMP              0 ****  ****    0 ROOT
