@<TRIPOS>MOLECULE
LGT
   22    21     1     0     0
SMALL
bcc


@<TRIPOS>ATOM
      1 O1A         -4.1150    -0.2950    -0.1660 o          1 LGT      -0.842050
      2 C1          -3.1750     0.3600     0.3420 c          1 LGT       0.900100
      3 O1B         -3.1950     1.5440     0.7090 o          1 LGT      -0.842050
      4 C2          -1.8620    -0.4380     0.5320 c3         1 LGT      -0.028400
      5 O2          -2.0540    -1.7430     0.0510 oh         1 LGT      -0.630800
      6 C3          -0.7010     0.2680    -0.1730 c3         1 LGT       0.139600
      7 O3          -0.8720     0.2260    -1.5710 oh         1 LGT      -0.623800
      8 C4           0.6750    -0.2460     0.2470 c3         1 LGT       0.139600
      9 O4           0.8350    -1.5780    -0.1730 oh         1 LGT      -0.623800
     10 C5           1.8070     0.6300    -0.3270 c3         1 LGT      -0.028400
     11 O5           1.6540     1.9720     0.0500 oh         1 LGT      -0.630800
     12 C6           3.1800     0.1170     0.1530 c          1 LGT       0.900100
     13 O6A          3.4320    -1.0970    -0.0290 o          1 LGT      -0.842050
     14 O6B          3.9190     0.9600     0.6940 o          1 LGT      -0.842050
     15 H2          -1.6430    -0.4500     1.6120 h1         1 LGT       0.034200
     16 HO2         -2.9850    -1.7040    -0.2460 ho         1 LGT       0.418500
     17 H3          -0.7520     1.3180     0.1220 h1         1 LGT       0.054200
     18 HO3         -0.8820    -0.7060    -1.8180 ho         1 LGT       0.421500
     19 H4           0.7240    -0.1620     1.3480 h1         1 LGT       0.054200
     20 HO4          1.8050    -1.7190    -0.1920 ho         1 LGT       0.421500
     21 H5           1.7780     0.5340    -1.4230 h1         1 LGT       0.034200
     22 HO5          2.4940     2.1710     0.5000 ho         1 LGT       0.418500
@<TRIPOS>BOND
     1     1     2 1   
     2     2     3 1   
     3     2     4 1   
     4     4     5 1   
     5     4     6 1   
     6     4    15 1   
     7     5    16 1   
     8     6     7 1   
     9     6     8 1   
    10     6    17 1   
    11     7    18 1   
    12     8     9 1   
    13     8    10 1   
    14     8    19 1   
    15     9    20 1   
    16    10    11 1   
    17    10    12 1   
    18    10    21 1   
    19    11    22 1   
    20    12    13 1   
    21    12    14 1   
@<TRIPOS>SUBSTRUCTURE
     1 LGT         1 TEMP              0 ****  ****    0 ROOT
