@<TRIPOS>MOLECULE
LGT
   22    21     1     0     0
SMALL
No Charge or Current Charge


@<TRIPOS>ATOM
      1 O1A         -4.1880    -0.1220    -0.2110 o          1 LGT      -0.736750
      2 C1          -3.2600     0.4940     0.3010 c          1 LGT       0.689500
      3 O1B         -3.3660     1.6390     0.7200 o          1 LGT      -0.736750
      4 C2          -1.9410    -0.3010     0.6030 c3         1 LGT      -0.005200
      5 O2          -2.1400    -1.7450     0.4920 oh         1 LGT      -0.753000
      6 C3          -0.7730     0.2170    -0.3000 c3         1 LGT       0.162800
      7 O3          -0.9750    -0.1720    -1.6670 oh         1 LGT      -0.746000
      8 C4           0.6470    -0.3020     0.1160 c3         1 LGT       0.162800
      9 O4           0.9000    -1.5670    -0.5430 oh         1 LGT      -0.746000
     10 C5           1.8080     0.6880    -0.2340 c3         1 LGT      -0.005200
     11 O5           1.6240     1.9620     0.4500 oh         1 LGT      -0.753000
     12 C6           3.2290     0.0880     0.0810 c          1 LGT       0.689500
     13 O6A          3.4500    -1.0900    -0.1760 o          1 LGT      -0.736750
     14 O6B          4.0310     0.8190     0.6500 o          1 LGT      -0.736750
     15 H2          -1.6760    -0.0570     1.6410 h1         1 LGT       0.034200
     16 HO2         -2.9920    -1.8280    -0.0060 ho         1 LGT       0.517500
     17 H3          -0.7760     1.3130    -0.2210 h1         1 LGT       0.054200
     18 HO3         -0.3960    -0.9800    -1.6940 ho         1 LGT       0.520500
     19 H4           0.6580    -0.4420     1.2070 h1         1 LGT       0.054200
     20 HO4          1.8930    -1.6800    -0.4680 ho         1 LGT       0.520500
     21 H5           1.7880     0.8600    -1.3190 h1         1 LGT       0.034200
     22 HO5          2.5230     2.1700     0.8190 ho         1 LGT       0.517500
@<TRIPOS>BOND
     1     1     2 1   
     2     2     3 1   
     3     2     4 1   
     4     4     5 1   
     5     4     6 1   
     6     4    15 1   
     7     5    16 1   
     8     6     7 1   
     9     6     8 1   
    10     6    17 1   
    11     7    18 1   
    12     8     9 1   
    13     8    10 1   
    14     8    19 1   
    15     9    20 1   
    16    10    11 1   
    17    10    12 1   
    18    10    21 1   
    19    11    22 1   
    20    12    13 1   
    21    12    14 1   
@<TRIPOS>SUBSTRUCTURE
     1 LGT         1 TEMP              0 ****  ****    0 ROOT
