@<TRIPOS>MOLECULE
LGU
   22    22     1     0     0
SMALL
No Charge or Current Charge


@<TRIPOS>ATOM
      1 C1         -31.3070    21.1880    10.6090 c6         1 LGU       0.360300
      2 C2         -31.0600    19.6330    10.6910 c6         1 LGU       0.066300
      3 O2         -32.2850    18.8570    10.5710 oh         1 LGU      -0.740000
      4 C3         -30.0320    19.1990     9.5940 c6         1 LGU       0.162300
      5 O3         -30.6510    19.3170     8.2920 oh         1 LGU      -0.734000
      6 C4         -28.7230    20.0610     9.6940 c6         1 LGU       0.174300
      7 O4         -28.0580    19.8190    10.9500 oh         1 LGU      -0.797000
      8 C5         -29.0920    21.5650     9.5900 c6         1 LGU      -0.018700
      9 O5         -30.0480    21.8980    10.6570 os         1 LGU      -0.439000
     10 C6         -27.7990    22.4470     9.5820 c          1 LGU       0.736000
     11 O6B        -27.5230    22.9590     8.5040 o          1 LGU      -0.702000
     12 O6A        -27.5320    23.0400    10.6200 o          1 LGU      -0.702000
     13 O1         -31.9430    21.5210     9.3790 oh         1 LGU      -0.744000
     14 H1         -31.9350    21.5090    11.4560 h2         1 LGU       0.069700
     15 H2         -30.6050    19.4330    11.6730 h1         1 LGU       0.070700
     16 HO2        -32.9240    19.2030    11.2390 ho         1 LGU       0.500000
     17 H3         -29.7570    18.1480     9.7730 h1         1 LGU       0.043700
     18 HO3        -31.3560    18.6240     8.2850 ho         1 LGU       0.503000
     19 H4         -28.0590    19.7920     8.8590 h1         1 LGU       0.036700
     20 HO4        -28.2990    20.5880    11.5260 ho         1 LGU       0.585000
     21 H5         -29.5710    21.7420     8.6170 h1         1 LGU       0.045700
     22 HO1        -31.5510    20.8440     8.7690 ho         1 LGU       0.523000
@<TRIPOS>BOND
     1     1     2 1   
     2     1     9 1   
     3     1    13 1   
     4     1    14 1   
     5     2     3 1   
     6     2     4 1   
     7     2    15 1   
     8     3    16 1   
     9     4     5 1   
    10     4     6 1   
    11     4    17 1   
    12     5    18 1   
    13     6     7 1   
    14     6     8 1   
    15     6    19 1   
    16     7    20 1   
    17     8     9 1   
    18     8    10 1   
    19     8    21 1   
    20    10    11 1   
    21    10    12 1   
    22    13    22 1   
@<TRIPOS>SUBSTRUCTURE
     1 LGU         1 TEMP              0 ****  ****    0 ROOT
