@<TRIPOS>MOLECULE
LGU
   22    22     1     0     0
SMALL
bcc


@<TRIPOS>ATOM
      1 C1         -31.3650    21.2240    10.4030 c6         1 LGU       0.313900
      2 C2         -31.0800    19.7420    10.7040 c6         1 LGU       0.043100
      3 O2         -32.2320    18.9400    10.6050 oh         1 LGU      -0.617800
      4 C3         -30.0420    19.1840     9.7370 c6         1 LGU       0.139100
      5 O3         -30.5330    19.1670     8.4050 oh         1 LGU      -0.611800
      6 C4         -28.7890    20.0570     9.7600 c6         1 LGU       0.151100
      7 O4         -28.1460    19.8450    10.9870 oh         1 LGU      -0.674800
      8 C5         -29.1570    21.5260     9.5430 c6         1 LGU      -0.041900
      9 O5         -30.1600    21.9480    10.4610 os         1 LGU      -0.392600
     10 C6         -27.9740    22.5050     9.7610 c          1 LGU       0.946600
     11 O6B        -27.9980    23.5640     9.1290 o          1 LGU      -0.807300
     12 O6A        -27.0990    22.1450    10.5940 o          1 LGU      -0.807300
     13 O1         -32.0620    21.4260     9.2180 oh         1 LGU      -0.621800
     14 H1         -31.9800    21.6510    11.2020 h2         1 LGU       0.069700
     15 H2         -30.6510    19.7000    11.7130 h1         1 LGU       0.070700
     16 HO2        -32.8790    19.2390    11.2520 ho         1 LGU       0.401000
     17 H3         -29.7680    18.1680    10.0510 h1         1 LGU       0.043700
     18 HO3        -31.2240    18.4990     8.3450 ho         1 LGU       0.404000
     19 H4         -28.1490    19.7540     8.9130 h1         1 LGU       0.036700
     20 HO4        -27.5810    20.6540    11.0820 ho         1 LGU       0.486000
     21 H5         -29.5040    21.6510     8.5090 h1         1 LGU       0.045700
     22 HO1        -31.7360    20.7990     8.5570 ho         1 LGU       0.424000
@<TRIPOS>BOND
     1     1     2 1   
     2     1     9 1   
     3     1    13 1   
     4     1    14 1   
     5     2     3 1   
     6     2     4 1   
     7     2    15 1   
     8     3    16 1   
     9     4     5 1   
    10     4     6 1   
    11     4    17 1   
    12     5    18 1   
    13     6     7 1   
    14     6     8 1   
    15     6    19 1   
    16     7    20 1   
    17     8     9 1   
    18     8    10 1   
    19     8    21 1   
    20    10    11 1   
    21    10    12 1   
    22    13    22 1   
@<TRIPOS>SUBSTRUCTURE
     1 LGU         1 TEMP              0 ****  ****    0 ROOT
