@<TRIPOS>MOLECULE
LGV
   46    50     1     0     0
SMALL
No Charge or Current Charge


@<TRIPOS>ATOM
      1 C1          -2.5130     5.5820     1.0140 cc         1 LGV      -0.238000
      2 C2           3.5280    -2.9000     0.4140 ca         1 LGV      -0.002000
      3 C3          -3.0230     4.3630     0.4740 cc         1 LGV      -0.194000
      4 C4           3.8670    -3.6730    -0.7060 ca         1 LGV      -0.207000
      5 C5          -2.4700    -0.9600    -0.5950 cc         1 LGV      -0.212000
      6 C6           2.3700    -1.4050    -1.0970 ca         1 LGV       0.395900
      7 C7          -1.3110     5.3490     1.6610 cd         1 LGV      -0.166100
      8 C8           2.7590    -1.7330     0.2180 ca         1 LGV      -0.221600
      9 C9          -2.1190     3.3830     0.7990 cd         1 LGV      -0.272000
     10 C10         -3.1540    -2.0110    -1.2320 cc         1 LGV       0.301300
     11 C11         -3.2870     0.1210    -0.6390 cd         1 LGV       0.221000
     12 C12          3.4300    -3.2560    -1.9680 ca         1 LGV       0.589200
     13 C13         -2.0810     1.9980     0.5360 cd         1 LGV       0.459900
     14 C14         -0.0860     1.9910     1.6860 cc         1 LGV       0.135300
     15 C15          2.3680    -0.8810     1.3920 c          1 LGV       0.623700
     16 C16         -1.5560    -3.8790    -0.3220 cx         1 LGV      -0.120400
     17 C17         -1.0540    -3.4850    -1.6940 cx         1 LGV      -0.120400
     18 C18         -2.5270    -3.3500    -1.3610 cx         1 LGV      -0.164000
     19 C19          1.0560     1.1260     2.1730 c3         1 LGV       0.064700
     20 N20          2.6960    -2.1470    -2.1780 nb         1 LGV      -0.710000
     21 N21         -4.4340    -0.3180    -1.3050 na         1 LGV      -0.044200
     22 N22         -1.0640     1.2860     0.9840 nc         1 LGV      -0.278000
     23 N23         -0.0290     3.3030     1.9820 nd         1 LGV      -0.312800
     24 N24         -4.3490    -1.6650    -1.6770 nd         1 LGV      -0.509800
     25 N25         -1.1170     3.9850     1.4980 na         1 LGV       0.291900
     26 N26         -3.0890     1.3990    -0.1700 nu         1 LGV      -0.909900
     27 N27          1.5960     0.2310     1.1360 ns         1 LGV      -0.499900
     28 O28          2.7130    -1.1590     2.5310 o          1 LGV      -0.601100
     29 F29          3.7340    -3.9690    -3.0730 f          1 LGV      -0.221200
     30 H1          -3.0090     6.5490     0.9220 ha         1 LGV       0.212000
     31 H3          -3.9530     4.2630    -0.0850 ha         1 LGV       0.201000
     32 H4           4.4570    -4.5790    -0.6060 ha         1 LGV       0.148000
     33 H5          -1.4800    -1.0170    -0.1650 ha         1 LGV       0.170000
     34 H6           1.7750    -0.5180    -1.3100 h4         1 LGV       0.030100
     35 H7          -0.6200     5.9950     2.1900 h4         1 LGV       0.237000
     36 H16         -1.6000    -4.9410    -0.0870 hc         1 LGV       0.074450
     37 H16A        -1.2890    -3.2460     0.5200 hc         1 LGV       0.074450
     38 H17         -0.4550    -2.5810    -1.7770 hc         1 LGV       0.074450
     39 H17A        -0.7600    -4.2820    -2.3730 hc         1 LGV       0.074450
     40 H18         -3.1990    -4.0780    -1.8100 hc         1 LGV       0.093700
     41 H19          1.8710     1.7620     2.5450 h1         1 LGV       0.083200
     42 H19A         0.6970     0.5220     3.0170 h1         1 LGV       0.083200
     43 HN26        -3.8330     2.0580    -0.3930 hn         1 LGV       0.510000
     44 HN27         1.3370     0.4110     0.1750 hn         1 LGV       0.340500
     45 HN21        -5.2550     0.2420    -1.5130 hn         1 LGV       0.368000
     46 H2           3.8550    -3.2030     1.4090 ha         1 LGV       0.147000
@<TRIPOS>BOND
     1     1     3 1   
     2     1     7 2   
     3     1    30 1   
     4     2     4 ar  
     5     2     8 ar  
     6     2    46 1   
     7     3     9 2   
     8     3    31 1   
     9     4    12 ar  
    10     4    32 1   
    11     5    10 1   
    12     5    11 2   
    13     5    33 1   
    14     6     8 ar  
    15     6    20 ar  
    16     6    34 1   
    17     7    25 1   
    18     7    35 1   
    19     8    15 1   
    20     9    13 1   
    21     9    25 1   
    22    10    18 1   
    23    10    24 2   
    24    11    21 1   
    25    11    26 1   
    26    12    20 ar  
    27    12    29 1   
    28    13    22 2   
    29    13    26 1   
    30    14    19 1   
    31    14    22 1   
    32    14    23 2   
    33    15    27 1   
    34    15    28 2   
    35    16    17 1   
    36    16    18 1   
    37    16    36 1   
    38    16    37 1   
    39    17    18 1   
    40    17    38 1   
    41    17    39 1   
    42    18    40 1   
    43    19    27 1   
    44    19    41 1   
    45    19    42 1   
    46    21    24 1   
    47    21    45 1   
    48    23    25 1   
    49    26    43 1   
    50    27    44 1   
@<TRIPOS>SUBSTRUCTURE
     1 LGV         1 TEMP              0 ****  ****    0 ROOT
