@<TRIPOS>MOLECULE
LGV
   46    50     1     0     0
SMALL
abcg2


@<TRIPOS>ATOM
      1 C1          -1.1470     4.8960     0.1420 cc         1 LGV      -0.238000
      2 C2           5.4500    -1.7060     0.1710 ca         1 LGV      -0.002000
      3 C3          -2.2560     4.0420     0.0670 cc         1 LGV      -0.194000
      4 C4           6.7680    -1.3040     0.1940 ca         1 LGV      -0.207000
      5 C5          -3.9340    -1.2440     0.0450 cc         1 LGV      -0.212000
      6 C6           4.8350     0.5330    -0.3500 ca         1 LGV       0.395900
      7 C7          -0.0010     4.1210     0.1670 cd         1 LGV      -0.166100
      8 C8           4.4450    -0.7730    -0.0910 ca         1 LGV      -0.221600
      9 C9          -1.7600     2.7500     0.0470 cd         1 LGV      -0.272000
     10 C10         -5.1440    -1.9600    -0.0820 cc         1 LGV       0.301300
     11 C11         -4.3090     0.0750    -0.1030 cd         1 LGV       0.221000
     12 C12          7.0100     0.0350    -0.0680 ca         1 LGV       0.589200
     13 C13         -2.2860     1.4310    -0.0110 cd         1 LGV       0.459900
     14 C14         -0.1610     0.6240     0.0440 cc         1 LGV       0.135300
     15 C15          3.0260    -1.2340    -0.1290 c          1 LGV       0.623700
     16 C16         -4.5620    -4.2400     0.9800 cx         1 LGV      -0.120400
     17 C17         -4.2850    -4.3620    -0.4810 cx         1 LGV      -0.120400
     18 C18         -5.3500    -3.4160    -0.0020 cx         1 LGV      -0.164000
     19 C19          0.6870    -0.6130     0.0310 c3         1 LGV       0.064700
     20 N20          6.1030     0.9300    -0.3380 nb         1 LGV      -0.710000
     21 N21         -5.6400     0.0790    -0.3010 na         1 LGV      -0.044200
     22 N22         -1.4910     0.3910    -0.0080 nc         1 LGV      -0.278000
     23 N23          0.4400     1.7680     0.1050 nd         1 LGV      -0.312800
     24 N24         -6.1650    -1.1510    -0.2900 nd         1 LGV      -0.509800
     25 N25         -0.3840     2.8310     0.1100 na         1 LGV       0.291900
     26 N26         -3.6230     1.2730    -0.0680 nu         1 LGV      -0.909900
     27 N27          2.0900    -0.2990     0.0760 ns         1 LGV      -0.499900
     28 O28          2.7550    -2.4090    -0.3380 o          1 LGV      -0.601100
     29 F29          8.2670     0.4730    -0.0570 f          1 LGV      -0.221200
     30 H1          -1.1690     5.9730     0.1750 ha         1 LGV       0.212000
     31 H3          -3.2940     4.3330     0.0330 ha         1 LGV       0.201000
     32 H4           7.5740    -1.9930     0.4010 ha         1 LGV       0.148000
     33 H5          -2.9450    -1.6250     0.2210 ha         1 LGV       0.170000
     34 H6           4.1120     1.3000    -0.6030 h4         1 LGV       0.030100
     35 H7           1.0400     4.3910     0.2200 h4         1 LGV       0.237000
     36 H16         -5.0760    -5.0530     1.4780 hc         1 LGV       0.074450
     37 H16A        -3.8350    -3.7280     1.5990 hc         1 LGV       0.074450
     38 H17         -3.3670    -3.9350    -0.8650 hc         1 LGV       0.074450
     39 H17A        -4.6070    -5.2600    -0.9930 hc         1 LGV       0.074450
     40 H18         -6.3770    -3.7210    -0.1700 hc         1 LGV       0.093700
     41 H19          0.3870    -1.2420     0.8750 h1         1 LGV       0.083200
     42 H19A         0.4520    -1.1780    -0.8740 h1         1 LGV       0.083200
     43 HN26        -4.1850     2.1120    -0.0830 hn         1 LGV       0.510000
     44 HN27         2.3400     0.6340     0.3630 hn         1 LGV       0.340500
     45 HN21        -6.2340     0.8770    -0.4590 hn         1 LGV       0.368000
     46 H2           5.1980    -2.7410     0.3600 ha         1 LGV       0.147000
@<TRIPOS>BOND
     1     1     3 1   
     2     1     7 2   
     3     1    30 1   
     4     2     4 ar  
     5     2     8 ar  
     6     2    46 1   
     7     3     9 2   
     8     3    31 1   
     9     4    12 ar  
    10     4    32 1   
    11     5    10 1   
    12     5    11 2   
    13     5    33 1   
    14     6     8 ar  
    15     6    20 ar  
    16     6    34 1   
    17     7    25 1   
    18     7    35 1   
    19     8    15 1   
    20     9    13 1   
    21     9    25 1   
    22    10    18 1   
    23    10    24 2   
    24    11    21 1   
    25    11    26 1   
    26    12    20 ar  
    27    12    29 1   
    28    13    22 2   
    29    13    26 1   
    30    14    19 1   
    31    14    22 1   
    32    14    23 2   
    33    15    27 1   
    34    15    28 2   
    35    16    17 1   
    36    16    18 1   
    37    16    36 1   
    38    16    37 1   
    39    17    18 1   
    40    17    38 1   
    41    17    39 1   
    42    18    40 1   
    43    19    27 1   
    44    19    41 1   
    45    19    42 1   
    46    21    24 1   
    47    21    45 1   
    48    23    25 1   
    49    26    43 1   
    50    27    44 1   
@<TRIPOS>SUBSTRUCTURE
     1 LGV         1 TEMP              0 ****  ****    0 ROOT
