@<TRIPOS>MOLECULE
LGW
   53    58     1     0     0
SMALL
abcg2


@<TRIPOS>ATOM
      1 N1          -0.0590    -2.7110     0.2420 na         1 LGW       0.289900
      2 C2           1.2800    -2.7880    -0.0800 cc         1 LGW      -0.267000
      3 C3           1.5730    -4.1150    -0.3470 cd         1 LGW      -0.197000
      4 C4           0.3790    -4.8300    -0.1790 cd         1 LGW      -0.244000
      5 C5          -0.6140    -3.9380     0.1850 cc         1 LGW      -0.172100
      6 N6          -0.7070    -1.5770     0.5680 nc         1 LGW      -0.279800
      7 C7           0.0360    -0.5180     0.5420 cd         1 LGW       0.140300
      8 N8           1.3520    -0.4370     0.2450 nd         1 LGW      -0.290000
      9 C9           1.9800    -1.5490    -0.0560 cc         1 LGW       0.457900
     10 N10          3.2900    -1.5450    -0.3520 nu         1 LGW      -0.869800
     11 C11          4.1530    -0.4590    -0.3780 cc         1 LGW       0.497900
     12 C12          3.9340     0.9030    -0.0920 cc         1 LGW      -0.207000
     13 C13          5.1680     1.4900    -0.2870 cd         1 LGW      -0.095300
     14 N14          5.9990     0.5010    -0.6560 na         1 LGW      -0.001200
     15 N15          5.4050    -0.6940    -0.7190 nd         1 LGW      -0.575800
     16 C16          5.5590     2.8980    -0.1470 cx         1 LGW      -0.071400
     17 C17          6.9390     3.2880     0.3120 cx         1 LGW      -0.123400
     18 C18          6.5350     3.5350    -1.1020 cx         1 LGW      -0.123400
     19 C19         -0.5830     0.7890     0.9510 c5         1 LGW       0.074400
     20 N20         -2.0320     0.8040     0.8490 n          1 LGW      -0.401800
     21 C21         -2.6710     1.1850     2.1070 c5         1 LGW       0.107000
     22 C22         -1.5490     1.8990     2.8470 c5         1 LGW      -0.099400
     23 C23         -0.3180     1.1040     2.4320 c5         1 LGW      -0.083400
     24 C24         -2.6060     0.7280    -0.3620 c          1 LGW       0.629700
     25 O25         -1.9540     0.6820    -1.3970 o          1 LGW      -0.587100
     26 C26         -4.0960     0.6840    -0.4240 ca         1 LGW      -0.213600
     27 C27         -4.7620     1.4250    -1.4000 ca         1 LGW      -0.009000
     28 C28         -6.1340     1.3280    -1.5120 ca         1 LGW      -0.207000
     29 C29         -6.7630     0.4530    -0.6420 ca         1 LGW       0.584200
     30 N30         -6.1730    -0.2780     0.2590 nb         1 LGW      -0.710000
     31 C31         -4.8520    -0.1620     0.3730 ca         1 LGW       0.397900
     32 F32         -8.0880     0.3190    -0.7180 f          1 LGW      -0.224200
     33 H3           2.5320    -4.5180    -0.6320 ha         1 LGW       0.202000
     34 H4           0.2430    -5.8920    -0.3080 ha         1 LGW       0.207000
     35 H5          -1.6580    -4.0860     0.4040 h4         1 LGW       0.234000
     36 HN10         3.7180    -2.4290    -0.5870 hn         1 LGW       0.521000
     37 H12          3.0220     1.3830     0.2100 ha         1 LGW       0.171000
     38 H16          4.7470     3.5280     0.1950 hc         1 LGW       0.099700
     39 H17          7.0160     4.1330     0.9840 hc         1 LGW       0.075450
     40 H17A         7.6530     2.4970     0.5120 hc         1 LGW       0.075450
     41 H18          6.9670     2.9100    -1.8740 hc         1 LGW       0.075450
     42 H18A         6.3320     4.5510    -1.4140 hc         1 LGW       0.075450
     43 H19         -0.1510     1.5730     0.3200 h1         1 LGW       0.090700
     44 H21         -3.5370     1.8210     1.9340 h1         1 LGW       0.053700
     45 H21A        -2.9980     0.3040     2.6660 h1         1 LGW       0.053700
     46 H22         -1.4720     2.9340     2.5070 hc         1 LGW       0.057200
     47 H22A        -1.7070     1.9070     3.9250 hc         1 LGW       0.057200
     48 H23         -0.2620     0.1790     3.0100 hc         1 LGW       0.064200
     49 H23A         0.6180     1.6420     2.5660 hc         1 LGW       0.064200
     50 H27         -4.2120     2.0790    -2.0630 ha         1 LGW       0.140000
     51 H28         -6.6910     1.8950    -2.2440 ha         1 LGW       0.146000
     52 H31         -4.3840    -0.7930     1.1200 h4         1 LGW       0.036100
     53 HN14         6.9800     0.5670    -0.8730 hn         1 LGW       0.373000
@<TRIPOS>BOND
     1     1     2 1   
     2     1     5 1   
     3     1     6 1   
     4     2     3 2   
     5     2     9 1   
     6     3     4 1   
     7     3    33 1   
     8     4     5 2   
     9     4    34 1   
    10     5    35 1   
    11     6     7 2   
    12     7     8 1   
    13     7    19 1   
    14     8     9 2   
    15     9    10 1   
    16    10    11 1   
    17    10    36 1   
    18    11    12 1   
    19    11    15 2   
    20    12    13 2   
    21    12    37 1   
    22    13    14 1   
    23    13    16 1   
    24    14    15 1   
    25    14    53 1   
    26    16    17 1   
    27    16    18 1   
    28    16    38 1   
    29    17    18 1   
    30    17    39 1   
    31    17    40 1   
    32    18    41 1   
    33    18    42 1   
    34    19    20 1   
    35    19    23 1   
    36    19    43 1   
    37    20    21 1   
    38    20    24 1   
    39    21    22 1   
    40    21    44 1   
    41    21    45 1   
    42    22    23 1   
    43    22    46 1   
    44    22    47 1   
    45    23    48 1   
    46    23    49 1   
    47    24    25 2   
    48    24    26 1   
    49    26    27 ar  
    50    26    31 ar  
    51    27    28 ar  
    52    27    50 1   
    53    28    29 ar  
    54    28    51 1   
    55    29    30 ar  
    56    29    32 1   
    57    30    31 ar  
    58    31    52 1   
@<TRIPOS>SUBSTRUCTURE
     1 LGW         1 TEMP              0 ****  ****    0 ROOT
