@<TRIPOS>MOLECULE
LGW
   53    58     1     0     0
SMALL
No Charge or Current Charge


@<TRIPOS>ATOM
      1 N1           0.0210    -2.7260     0.4020 na         1 LGW       0.289900
      2 C2           1.3040    -2.6630    -0.0200 cc         1 LGW      -0.267000
      3 C3           1.6700    -3.9380    -0.3800 cd         1 LGW      -0.197000
      4 C4           0.5330    -4.7680    -0.1490 cd         1 LGW      -0.244000
      5 C5          -0.5090    -4.0040     0.3460 cc         1 LGW      -0.172100
      6 N6          -0.6750    -1.6350     0.8440 nc         1 LGW      -0.279800
      7 C7           0.0310    -0.4780     0.8140 cd         1 LGW       0.140300
      8 N8           1.3690    -0.3180     0.3940 nd         1 LGW      -0.290000
      9 C9           1.9620    -1.4230    -0.0100 cc         1 LGW       0.457900
     10 N10          3.2580    -1.4250    -0.4520 nu         1 LGW      -0.869800
     11 C11          4.2300    -0.4830    -0.5730 cc         1 LGW       0.497900
     12 C12          4.1420     0.8530    -0.1700 cc         1 LGW      -0.207000
     13 C13          5.3380     1.4290    -0.4720 cd         1 LGW      -0.095300
     14 N14          6.0850     0.3840    -1.0450 na         1 LGW      -0.001200
     15 N15          5.3730    -0.8200    -1.1020 nd         1 LGW      -0.575800
     16 C16          5.7220     2.8440    -0.2270 cx         1 LGW      -0.071400
     17 C17          7.1360     3.2050     0.1650 cx         1 LGW      -0.123400
     18 C18          6.6120     3.5820    -1.2000 cx         1 LGW      -0.123400
     19 C19         -0.6800     0.7840     1.2920 c5         1 LGW       0.074400
     20 N20         -2.1390     0.8580     1.0210 n          1 LGW      -0.401800
     21 C21         -2.8900     1.4050     2.1790 c5         1 LGW       0.107000
     22 C22         -1.7520     1.8860     3.1170 c5         1 LGW      -0.099400
     23 C23         -0.6560     0.8290     2.8430 c5         1 LGW      -0.083400
     24 C24         -2.6410     0.9100    -0.2970 c          1 LGW       0.629700
     25 O25         -1.8830     1.0180    -1.2530 o          1 LGW      -0.587100
     26 C26         -4.1150     0.7480    -0.5190 ca         1 LGW      -0.213600
     27 C27         -4.7390     1.3580    -1.6250 ca         1 LGW      -0.009000
     28 C28         -6.1160     1.1570    -1.8050 ca         1 LGW      -0.207000
     29 C29         -6.8020     0.3480    -0.8920 ca         1 LGW       0.584200
     30 N30         -6.2170    -0.2670     0.1540 nb         1 LGW      -0.710000
     31 C31         -4.8900    -0.0680     0.3250 ca         1 LGW       0.397900
     32 F32         -8.1260     0.1260    -1.0290 f          1 LGW      -0.224200
     33 H3           2.6350    -4.2650    -0.7650 ha         1 LGW       0.202000
     34 H4           0.4900    -5.8410    -0.3320 ha         1 LGW       0.207000
     35 H5          -1.5230    -4.2420     0.6460 h4         1 LGW       0.234000
     36 HN10         3.5690    -2.3300    -0.7790 hn         1 LGW       0.521000
     37 H12          3.2910     1.3330     0.2940 ha         1 LGW       0.171000
     38 H16          4.9280     3.4250     0.2380 hc         1 LGW       0.099700
     39 H17          7.2710     4.0000     0.8950 hc         1 LGW       0.075450
     40 H17A         7.8730     2.4070     0.2240 hc         1 LGW       0.075450
     41 H18          6.9960     3.0390    -2.0600 hc         1 LGW       0.075450
     42 H18A         6.3950     4.6310    -1.3880 hc         1 LGW       0.075450
     43 H19         -0.1740     1.6630     0.8670 h1         1 LGW       0.090700
     44 H21         -3.5630     2.2260     1.8960 h1         1 LGW       0.053700
     45 H21A        -3.4810     0.6210     2.6680 h1         1 LGW       0.053700
     46 H22         -1.4110     2.8910     2.8420 hc         1 LGW       0.057200
     47 H22A        -2.0610     1.9190     4.1680 hc         1 LGW       0.057200
     48 H23         -0.9180    -0.1380     3.2880 hc         1 LGW       0.064200
     49 H23A         0.3240     1.1200     3.2390 hc         1 LGW       0.064200
     50 H27         -4.1750     1.9790    -2.3200 ha         1 LGW       0.140000
     51 H28         -6.6470     1.6130    -2.6340 ha         1 LGW       0.146000
     52 H31         -4.4380    -0.6130     1.1520 h4         1 LGW       0.036100
     53 HN14         7.0410     0.4550    -1.3920 hn         1 LGW       0.373000
@<TRIPOS>BOND
     1     1     2 1   
     2     1     5 1   
     3     1     6 1   
     4     2     3 2   
     5     2     9 1   
     6     3     4 1   
     7     3    33 1   
     8     4     5 2   
     9     4    34 1   
    10     5    35 1   
    11     6     7 2   
    12     7     8 1   
    13     7    19 1   
    14     8     9 2   
    15     9    10 1   
    16    10    11 1   
    17    10    36 1   
    18    11    12 1   
    19    11    15 2   
    20    12    13 2   
    21    12    37 1   
    22    13    14 1   
    23    13    16 1   
    24    14    15 1   
    25    14    53 1   
    26    16    17 1   
    27    16    18 1   
    28    16    38 1   
    29    17    18 1   
    30    17    39 1   
    31    17    40 1   
    32    18    41 1   
    33    18    42 1   
    34    19    20 1   
    35    19    23 1   
    36    19    43 1   
    37    20    21 1   
    38    20    24 1   
    39    21    22 1   
    40    21    44 1   
    41    21    45 1   
    42    22    23 1   
    43    22    46 1   
    44    22    47 1   
    45    23    48 1   
    46    23    49 1   
    47    24    25 2   
    48    24    26 1   
    49    26    27 ar  
    50    26    31 ar  
    51    27    28 ar  
    52    27    50 1   
    53    28    29 ar  
    54    28    51 1   
    55    29    30 ar  
    56    29    32 1   
    57    30    31 ar  
    58    31    52 1   
@<TRIPOS>SUBSTRUCTURE
     1 LGW         1 TEMP              0 ****  ****    0 ROOT
