@<TRIPOS>MOLECULE
LGX
   53    58     1     0     0
SMALL
abcg2


@<TRIPOS>ATOM
      1 N1           2.7010    -1.2600    -0.9490 na         1 LGX       0.285900
      2 C2           1.8100    -2.0700    -0.2760 cc         1 LGX      -0.271000
      3 C3           2.5220    -3.1380     0.2420 cd         1 LGX      -0.194000
      4 C4           3.8600    -2.9490    -0.1370 cd         1 LGX      -0.243000
      5 C5           3.9420    -1.7800    -0.8710 cc         1 LGX      -0.166100
      6 N6           2.3750    -0.1070    -1.5620 nc         1 LGX      -0.282800
      7 C7           1.1180     0.1940    -1.4870 cd         1 LGX       0.117300
      8 N8           0.1350    -0.5010    -0.8810 nd         1 LGX      -0.290000
      9 C9           0.4610    -1.6170    -0.2740 cc         1 LGX       0.454900
     10 N10         -0.4650    -2.3510     0.3630 nu         1 LGX      -0.867800
     11 C11         -1.8140    -2.0590     0.5190 cc         1 LGX       0.488900
     12 C12         -2.5380    -0.8840     0.2400 cc         1 LGX      -0.206000
     13 C13         -3.8270    -1.1810     0.6370 cd         1 LGX      -0.089300
     14 N14         -3.7930    -2.4420     1.1000 na         1 LGX      -0.000200
     15 N15         -2.5800    -2.9980     1.0370 nd         1 LGX      -0.572800
     16 C16         -5.0290    -0.3390     0.5940 cx         1 LGX      -0.071400
     17 C17         -6.0780    -0.4220     1.6700 cx         1 LGX      -0.122900
     18 C18         -6.3850    -0.9210     0.2990 cx         1 LGX      -0.122900
     19 C19          0.7000     1.4660    -2.1750 c5         1 LGX       0.083400
     20 N20         -0.2060     2.2810    -1.3620 n          1 LGX      -0.398800
     21 C21         -1.4090     2.6700    -2.0930 c5         1 LGX       0.100000
     22 C22         -1.0330     2.4060    -3.5410 c5         1 LGX      -0.093400
     23 C23         -0.1280     1.1870    -3.4360 c5         1 LGX      -0.089400
     24 C24         -0.1480     2.4410    -0.0290 c          1 LGX       0.634700
     25 O25         -1.0860     2.8740     0.6250 o          1 LGX      -0.593100
     26 C26          1.1330     2.0830     0.6470 ca         1 LGX      -0.215600
     27 C27          1.1220     1.2190     1.7400 ca         1 LGX      -0.011000
     28 C28          2.3090     0.9000     2.3660 ca         1 LGX      -0.205000
     29 C29          3.4510     1.5100     1.8690 ca         1 LGX       0.584200
     30 N30          3.4930     2.3510     0.8770 nb         1 LGX      -0.705000
     31 C31          2.3470     2.6300     0.2630 ca         1 LGX       0.400900
     32 F32          4.6220     1.2340     2.4440 f          1 LGX      -0.225200
     33 H3           2.1250    -3.9570     0.8220 ha         1 LGX       0.204000
     34 H4           4.6900    -3.5960     0.0970 ha         1 LGX       0.210000
     35 H5           4.7820    -1.2860    -1.3310 h4         1 LGX       0.239000
     36 HN10        -0.1710    -3.2260     0.7720 hn         1 LGX       0.522000
     37 H12         -2.1780     0.0370    -0.1780 ha         1 LGX       0.175000
     38 H16         -4.8350     0.6480     0.1930 hc         1 LGX       0.104700
     39 H17         -5.9360    -1.1480     2.4610 hc         1 LGX       0.075450
     40 H17A        -6.5270     0.5070     1.9960 hc         1 LGX       0.075450
     41 H18         -7.0470    -0.3400    -0.3290 hc         1 LGX       0.075450
     42 H18A        -6.4550    -1.9910     0.1470 hc         1 LGX       0.075450
     43 H19          1.5980     2.0260    -2.4470 h1         1 LGX       0.080700
     44 H21         -2.2630     2.0570    -1.7840 h1         1 LGX       0.057200
     45 H21A        -1.6600     3.7120    -1.8980 h1         1 LGX       0.057200
     46 H22         -1.9050     2.2350    -4.1700 hc         1 LGX       0.056200
     47 H22A        -0.4830     3.2560    -3.9510 hc         1 LGX       0.056200
     48 H23          0.5120     1.0370    -4.3040 hc         1 LGX       0.066700
     49 H23A        -0.7290     0.2860    -3.2940 hc         1 LGX       0.066700
     50 H27          0.1940     0.7820     2.0850 ha         1 LGX       0.141000
     51 H28          2.3520     0.2160     3.2010 ha         1 LGX       0.145000
     52 H31          2.4050     3.3310    -0.5620 h4         1 LGX       0.031100
     53 HN14        -4.5580    -2.9900     1.4600 hn         1 LGX       0.374000
@<TRIPOS>BOND
     1     1     2 1   
     2     1     5 1   
     3     1     6 1   
     4     2     3 2   
     5     2     9 1   
     6     3     4 1   
     7     3    33 1   
     8     4     5 2   
     9     4    34 1   
    10     5    35 1   
    11     6     7 2   
    12     7     8 1   
    13     7    19 1   
    14     8     9 2   
    15     9    10 1   
    16    10    11 1   
    17    10    36 1   
    18    11    12 1   
    19    11    15 2   
    20    12    13 2   
    21    12    37 1   
    22    13    14 1   
    23    13    16 1   
    24    14    15 1   
    25    14    53 1   
    26    16    17 1   
    27    16    18 1   
    28    16    38 1   
    29    17    18 1   
    30    17    39 1   
    31    17    40 1   
    32    18    41 1   
    33    18    42 1   
    34    19    20 1   
    35    19    23 1   
    36    19    43 1   
    37    20    21 1   
    38    20    24 1   
    39    21    22 1   
    40    21    44 1   
    41    21    45 1   
    42    22    23 1   
    43    22    46 1   
    44    22    47 1   
    45    23    48 1   
    46    23    49 1   
    47    24    25 2   
    48    24    26 1   
    49    26    27 ar  
    50    26    31 ar  
    51    27    28 ar  
    52    27    50 1   
    53    28    29 ar  
    54    28    51 1   
    55    29    30 ar  
    56    29    32 1   
    57    30    31 ar  
    58    31    52 1   
@<TRIPOS>SUBSTRUCTURE
     1 LGX         1 TEMP              0 ****  ****    0 ROOT
