@<TRIPOS>MOLECULE
LGX
   53    58     1     0     0
SMALL
No Charge or Current Charge


@<TRIPOS>ATOM
      1 N1           2.7040    -1.3810    -1.0590 na         1 LGX       0.285900
      2 C2           1.7440    -2.1220    -0.4590 cc         1 LGX      -0.271000
      3 C3           2.3670    -3.2180     0.0860 cd         1 LGX      -0.194000
      4 C4           3.7550    -3.0910    -0.2210 cd         1 LGX      -0.243000
      5 C5           3.9690    -1.9300    -0.9420 cc         1 LGX      -0.166100
      6 N6           2.4470    -0.1910    -1.6860 nc         1 LGX      -0.282800
      7 C7           1.1440     0.1720    -1.6700 cd         1 LGX       0.117300
      8 N8           0.0740    -0.5500    -1.0950 nd         1 LGX      -0.290000
      9 C9           0.4170    -1.6690    -0.4920 cc         1 LGX       0.454900
     10 N10         -0.5140    -2.4570     0.1280 nu         1 LGX      -0.867800
     11 C11         -1.8190    -2.2900     0.4640 cc         1 LGX       0.488900
     12 C12         -2.5340    -1.0900     0.3960 cc         1 LGX      -0.206000
     13 C13         -3.7880    -1.3600     0.8490 cd         1 LGX      -0.089300
     14 N14         -3.7470    -2.7280     1.1720 na         1 LGX      -0.000200
     15 N15         -2.4940    -3.3030     0.9310 nd         1 LGX      -0.572800
     16 C16         -4.9080    -0.3900     0.9670 cx         1 LGX      -0.071400
     17 C17         -5.9020    -0.4890     2.1020 cx         1 LGX      -0.122900
     18 C18         -6.3320    -0.8170     0.6910 cx         1 LGX      -0.122900
     19 C19          0.8210     1.5270    -2.2960 c5         1 LGX       0.083400
     20 N20         -0.1710     2.3800    -1.5750 n          1 LGX      -0.398800
     21 C21         -1.2890     2.7840    -2.4520 c5         1 LGX       0.100000
     22 C22         -0.6430     2.6410    -3.8510 c5         1 LGX      -0.093400
     23 C23          0.1320     1.3130    -3.6770 c5         1 LGX      -0.089400
     24 C24         -0.2950     2.4160    -0.1670 c          1 LGX       0.634700
     25 O25         -1.3570     2.7290     0.3560 o          1 LGX      -0.593100
     26 C26          0.9070     2.1390     0.6830 ca         1 LGX      -0.215600
     27 C27          0.7670     1.4500     1.9040 ca         1 LGX      -0.011000
     28 C28          1.9230     1.2010     2.6570 ca         1 LGX      -0.205000
     29 C29          3.1530     1.6630     2.1750 ca         1 LGX       0.584200
     30 N30          3.3000     2.3520     1.0260 nb         1 LGX      -0.705000
     31 C31          2.1840     2.5810     0.2980 ca         1 LGX       0.400900
     32 F32          4.2900     1.4480     2.8700 f          1 LGX      -0.225200
     33 H3           1.9060    -4.0280     0.6500 ha         1 LGX       0.204000
     34 H4           4.5310    -3.7970     0.0710 ha         1 LGX       0.210000
     35 H5           4.8580    -1.4700    -1.3560 h4         1 LGX       0.239000
     36 HN10        -0.1630    -3.3680     0.3920 hn         1 LGX       0.522000
     37 H12         -2.1570    -0.1340     0.0610 ha         1 LGX       0.175000
     38 H16         -4.6350     0.6150     0.6500 hc         1 LGX       0.104700
     39 H17         -5.7990    -1.3110     2.8060 hc         1 LGX       0.075450
     40 H17A        -6.2620     0.4390     2.5390 hc         1 LGX       0.075450
     41 H18         -6.9810    -0.1090     0.1820 hc         1 LGX       0.075450
     42 H18A        -6.5180    -1.8600     0.4460 hc         1 LGX       0.075450
     43 H19          1.7540     2.0880    -2.4420 h1         1 LGX       0.080700
     44 H21         -2.1470     2.1090    -2.3290 h1         1 LGX       0.057200
     45 H21A        -1.6210     3.8130    -2.2550 h1         1 LGX       0.057200
     46 H22         -1.3870     2.5980    -4.6540 hc         1 LGX       0.056200
     47 H22A         0.0330     3.4760    -4.0670 hc         1 LGX       0.056200
     48 H23          0.8560     1.1330    -4.4810 hc         1 LGX       0.066700
     49 H23A        -0.5570     0.4600    -3.6630 hc         1 LGX       0.066700
     50 H27         -0.2060     1.1010     2.2460 ha         1 LGX       0.141000
     51 H28          1.8760     0.6610     3.5980 ha         1 LGX       0.145000
     52 H31          2.3270     3.1600    -0.6130 h4         1 LGX       0.031100
     53 HN14        -4.5210    -3.2750     1.5490 hn         1 LGX       0.374000
@<TRIPOS>BOND
     1     1     2 1   
     2     1     5 1   
     3     1     6 1   
     4     2     3 2   
     5     2     9 1   
     6     3     4 1   
     7     3    33 1   
     8     4     5 2   
     9     4    34 1   
    10     5    35 1   
    11     6     7 2   
    12     7     8 1   
    13     7    19 1   
    14     8     9 2   
    15     9    10 1   
    16    10    11 1   
    17    10    36 1   
    18    11    12 1   
    19    11    15 2   
    20    12    13 2   
    21    12    37 1   
    22    13    14 1   
    23    13    16 1   
    24    14    15 1   
    25    14    53 1   
    26    16    17 1   
    27    16    18 1   
    28    16    38 1   
    29    17    18 1   
    30    17    39 1   
    31    17    40 1   
    32    18    41 1   
    33    18    42 1   
    34    19    20 1   
    35    19    23 1   
    36    19    43 1   
    37    20    21 1   
    38    20    24 1   
    39    21    22 1   
    40    21    44 1   
    41    21    45 1   
    42    22    23 1   
    43    22    46 1   
    44    22    47 1   
    45    23    48 1   
    46    23    49 1   
    47    24    25 2   
    48    24    26 1   
    49    26    27 ar  
    50    26    31 ar  
    51    27    28 ar  
    52    27    50 1   
    53    28    29 ar  
    54    28    51 1   
    55    29    30 ar  
    56    29    32 1   
    57    30    31 ar  
    58    31    52 1   
@<TRIPOS>SUBSTRUCTURE
     1 LGX         1 TEMP              0 ****  ****    0 ROOT
