@<TRIPOS>MOLECULE
LGY
   32    31     1     0     0
SMALL
abcg2


@<TRIPOS>ATOM
      1 OXT         33.4520   -18.0770     4.2890 o          1 LGY      -0.731000
      2 C           34.3270   -17.1880     4.3240 c          1 LGY       0.720000
      3 N           33.2070   -16.4840     6.4200 n8         1 LGY      -1.006200
      4 O           35.3070   -17.0810     3.5610 o          1 LGY      -0.731000
      5 N1          37.8400   -12.4280     8.9820 n2         1 LGY      -0.575900
      6 C3          39.6090   -10.7890     9.1480 c3         1 LGY      -0.117700
      7 C4          40.5390   -10.4580     7.9750 c3         1 LGY      -0.199400
      8 C5          40.0860    -9.2540     7.2060 c          1 LGY       0.572900
      9 O6          40.0050    -9.1820     6.0060 o          1 LGY      -0.510100
     10 CA          34.1520   -16.0720     5.3890 c3         1 LGY       0.023500
     11 CB          35.4790   -15.6560     6.0160 c3         1 LGY      -0.047400
     12 CD          36.6930   -14.0160     7.5220 c3         1 LGY      -0.073400
     13 CE          36.5530   -12.8220     8.4590 c3         1 LGY       0.098800
     14 CG          35.3490   -14.4850     6.9820 c3         1 LGY      -0.078400
     15 C11         38.2760   -11.2830     8.6840 c2         1 LGY       0.396200
     16 HN          32.7300   -15.6770     6.8000 hn         1 LGY       0.381000
     17 HNA         32.5040   -17.0620     5.9800 hn         1 LGY       0.381000
     18 H3          40.0730   -11.5410     9.7850 hc         1 LGY       0.056200
     19 H3A         39.4660    -9.8890     9.7560 hc         1 LGY       0.056200
     20 H4          41.5250   -10.2070     8.3830 hc         1 LGY       0.071200
     21 H4A         40.6660   -11.3120     7.3070 hc         1 LGY       0.071200
     22 H5          39.8310    -8.3850     7.8420 h4         1 LGY      -0.028800
     23 HA          33.7790   -15.1960     4.8260 h1         1 LGY      -0.007300
     24 HB          35.9150   -16.5140     6.5430 hc         1 LGY       0.046700
     25 HBA         36.1780   -15.3880     5.2220 hc         1 LGY       0.046700
     26 HD          37.3480   -13.7410     6.6900 hc         1 LGY       0.046200
     27 HDA         37.1890   -14.8350     8.0520 hc         1 LGY       0.046200
     28 HE          35.9150   -13.1050     9.3020 h1         1 LGY       0.039200
     29 HEA         36.0460   -12.0000     7.9320 h1         1 LGY       0.039200
     30 HG          34.8530   -13.6510     6.4720 hc         1 LGY       0.027200
     31 HGA         34.7000   -14.7620     7.8190 hc         1 LGY       0.027200
     32 H11         37.6940   -10.5900     8.0610 h4         1 LGY      -0.039200
@<TRIPOS>BOND
     1     1     2 1   
     2     2     4 1   
     3     2    10 1   
     4     3    10 1   
     5     3    16 1   
     6     3    17 1   
     7     5    13 1   
     8     5    15 2   
     9     6     7 1   
    10     6    15 1   
    11     6    18 1   
    12     6    19 1   
    13     7     8 1   
    14     7    20 1   
    15     7    21 1   
    16     8     9 2   
    17     8    22 1   
    18    10    11 1   
    19    10    23 1   
    20    11    14 1   
    21    11    24 1   
    22    11    25 1   
    23    12    13 1   
    24    12    14 1   
    25    12    26 1   
    26    12    27 1   
    27    13    28 1   
    28    13    29 1   
    29    14    30 1   
    30    14    31 1   
    31    15    32 1   
@<TRIPOS>SUBSTRUCTURE
     1 LGY         1 TEMP              0 ****  ****    0 ROOT
