@<TRIPOS>MOLECULE
LGY
   32    31     1     0     0
SMALL
No Charge or Current Charge


@<TRIPOS>ATOM
      1 OXT         33.4140   -16.8410     3.1980 o          1 LGY      -0.731000
      2 C           34.3430   -16.8910     3.9950 c          1 LGY       0.720000
      3 N           33.4890   -16.9270     6.4850 n8         1 LGY      -1.006200
      4 O           35.3870   -17.4890     3.7590 o          1 LGY      -0.731000
      5 N1          37.8560   -12.2990     8.9790 n2         1 LGY      -0.575900
      6 C3          39.4720   -10.4610     9.2240 c3         1 LGY      -0.117700
      7 C4          40.5280   -10.5830     8.0910 c3         1 LGY      -0.199400
      8 C5          40.1250    -9.8030     6.8350 c          1 LGY       0.572900
      9 O6          39.3680   -10.2500     5.9810 o          1 LGY      -0.510100
     10 CA          34.1690   -16.1430     5.3910 c3         1 LGY       0.023500
     11 CB          35.5100   -15.5370     5.8980 c3         1 LGY      -0.047400
     12 CD          36.7010   -13.8780     7.4750 c3         1 LGY      -0.073400
     13 CE          36.5460   -12.8510     8.6170 c3         1 LGY       0.098800
     14 CG          35.3570   -14.5070     7.0450 c3         1 LGY      -0.078400
     15 C11         38.1210   -11.0440     8.8610 c2         1 LGY       0.396200
     16 HN          33.3390   -16.3130     7.2930 hn         1 LGY       0.381000
     17 HNA         32.5390   -17.1710     6.1800 hn         1 LGY       0.381000
     18 H3          39.8570   -10.9580    10.1230 hc         1 LGY       0.056200
     19 H3A         39.3500    -9.4040     9.4900 hc         1 LGY       0.056200
     20 H4          41.4650   -10.1590     8.4700 hc         1 LGY       0.071200
     21 H4A         40.6600   -11.6410     7.8360 hc         1 LGY       0.071200
     22 H5          40.5650    -8.7860     6.7380 h4         1 LGY      -0.028800
     23 HA          33.5040   -15.2920     5.1880 h1         1 LGY      -0.007300
     24 HB          36.1790   -16.3450     6.2190 hc         1 LGY       0.046700
     25 HBA         36.0040   -15.0390     5.0540 hc         1 LGY       0.046700
     26 HD          37.1630   -13.3860     6.6100 hc         1 LGY       0.046200
     27 HDA         37.3850   -14.6730     7.7960 hc         1 LGY       0.046200
     28 HE          36.0920   -13.3480     9.4850 h1         1 LGY       0.039200
     29 HEA         35.8550   -12.0610     8.2920 h1         1 LGY       0.039200
     30 HG          34.6750   -13.7090     6.7230 hc         1 LGY       0.027200
     31 HGA         34.8980   -14.9890     7.9170 hc         1 LGY       0.027200
     32 H11         37.3710   -10.3510     8.4880 h4         1 LGY      -0.039200
@<TRIPOS>BOND
     1     1     2 1   
     2     2     4 1   
     3     2    10 1   
     4     3    10 1   
     5     3    16 1   
     6     3    17 1   
     7     5    13 1   
     8     5    15 2   
     9     6     7 1   
    10     6    15 1   
    11     6    18 1   
    12     6    19 1   
    13     7     8 1   
    14     7    20 1   
    15     7    21 1   
    16     8     9 2   
    17     8    22 1   
    18    10    11 1   
    19    10    23 1   
    20    11    14 1   
    21    11    24 1   
    22    11    25 1   
    23    12    13 1   
    24    12    14 1   
    25    12    26 1   
    26    12    27 1   
    27    13    28 1   
    28    13    29 1   
    29    14    30 1   
    30    14    31 1   
    31    15    32 1   
@<TRIPOS>SUBSTRUCTURE
     1 LGY         1 TEMP              0 ****  ****    0 ROOT
