@<TRIPOS>MOLECULE
LGZ
   85    90     1     0     0
SMALL
No Charge or Current Charge


@<TRIPOS>ATOM
      1 O01          4.7580    -1.8650     0.3000 os         1 LGZ      -0.465100
      2 C02          3.6210    -1.1620     0.5760 c          1 LGZ       0.640100
      3 O03          3.1960    -0.8730     1.6850 o          1 LGZ      -0.535000
      4 NP4          3.0830    -0.7430    -0.6060 ns         1 LGZ      -0.496900
      5 C05          2.0300     0.2790    -0.7240 c3         1 LGZ       0.088700
      6 C06          0.7010    -0.2850    -1.3140 c3         1 LGZ       0.161300
      7 O07          0.9290    -0.7710    -2.6520 oh         1 LGZ      -0.658000
      8 C08          0.1060    -1.4400    -0.4570 c3         1 LGZ      -0.113400
      9 C09         -1.4130    -1.7480    -0.6600 c5         1 LGZ       0.103200
     10 C10         -1.7630    -3.0910     0.0520 c3         1 LGZ      -0.014100
     11 C11         -3.2570    -3.4000     0.1690 ca         1 LGZ      -0.085300
     12 C12         -3.9890    -3.8440    -0.9510 ca         1 LGZ      -0.095500
     13 C13         -5.3610    -4.1260    -0.8370 ca         1 LGZ      -0.114500
     14 C14         -6.0120    -3.9740     0.3990 ca         1 LGZ      -0.108000
     15 C15         -5.2880    -3.5400     1.5210 ca         1 LGZ      -0.114500
     16 C16         -3.9160    -3.2520     1.4060 ca         1 LGZ      -0.095500
     17 C17         -2.2950    -0.6030    -0.0620 c          1 LGZ       0.602300
     18 O18         -2.3760    -0.2000     1.0940 o          1 LGZ      -0.529100
     19 C19         -4.0240     1.0070    -1.1300 c5         1 LGZ       0.080800
     20 C20         -3.2540     2.4060    -1.1420 c5         1 LGZ       0.196300
     21 O1          -2.0150     2.2960    -0.3830 os         1 LGZ      -0.440100
     22 C22         -4.2070     3.3900    -0.3400 c5         1 LGZ      -0.056100
     23 C23         -4.9460     2.4260     0.5590 ca         1 LGZ      -0.085300
     24 C24         -5.6960     2.7510     1.7020 ca         1 LGZ      -0.097000
     25 C25         -6.3520     1.7200     2.4020 ca         1 LGZ      -0.112000
     26 C26         -6.2640     0.3860     1.9490 ca         1 LGZ      -0.114000
     27 C27         -5.5140     0.0810     0.7980 ca         1 LGZ      -0.080000
     28 C28         -4.8460     1.1180     0.1270 ca         1 LGZ      -0.074300
     29 N29         -1.7050    -1.8320    -2.1330 nu         1 LGZ      -0.798200
     30 C30         -2.6620    -0.8410    -2.3700 c2         1 LGZ       0.110000
     31 C35         -3.0100    -0.1440    -1.2810 ce         1 LGZ      -0.341400
     32 C36          2.5810     1.5150    -1.4800 c3         1 LGZ      -0.052100
     33 C37          3.8780     2.0340    -0.8630 ca         1 LGZ      -0.086300
     34 C38          5.1080     1.8490    -1.5240 ca         1 LGZ      -0.105500
     35 C39          6.3050     2.2880    -0.9330 ca         1 LGZ      -0.104500
     36 C40          6.2810     2.9160     0.3230 ca         1 LGZ      -0.110000
     37 C41          5.0580     3.1060     0.9870 ca         1 LGZ      -0.104500
     38 C42          3.8610     2.6650     0.3970 ca         1 LGZ      -0.105500
     39 C44          5.5790    -2.1670     1.4610 c5         1 LGZ       0.161300
     40 C45          6.2910    -0.8500     1.9430 c5         1 LGZ       0.127600
     41 O46          7.6980    -1.0420     1.6680 os         1 LGZ      -0.462000
     42 C47          7.7840    -1.9520     0.5600 c5         1 LGZ       0.157600
     43 C48          6.7610    -3.0400     0.9530 c5         1 LGZ      -0.119400
     44 C1          -1.1690     3.3580    -0.4980 c          1 LGZ       0.633100
     45 N1          -0.1650     3.2270     0.3790 nt         1 LGZ      -0.601000
     46 O2          -1.2730     4.3020    -1.2610 o          1 LGZ      -0.552000
     47 H1           3.6100    -1.0030    -1.4290 hn         1 LGZ       0.314500
     48 H2           1.7880     0.6290     0.2890 h1         1 LGZ       0.091700
     49 H3          -0.0270     0.5400    -1.3300 h1         1 LGZ       0.100700
     50 H4           1.7160    -1.3550    -2.6100 ho         1 LGZ       0.434000
     51 H5           0.2680    -1.2020     0.6020 hc         1 LGZ       0.067200
     52 H6           0.6970    -2.3460    -0.6410 hc         1 LGZ       0.067200
     53 H7          -1.2650    -3.9190    -0.4670 hc         1 LGZ       0.057700
     54 H8          -1.3270    -3.0840     1.0580 hc         1 LGZ       0.057700
     55 H9          -3.4940    -3.9670    -1.9110 ha         1 LGZ       0.114500
     56 H10         -5.9190    -4.4640    -1.7070 ha         1 LGZ       0.112500
     57 H11         -7.0730    -4.1940     0.4860 ha         1 LGZ       0.112000
     58 H12         -5.7890    -3.4210     2.4790 ha         1 LGZ       0.112500
     59 H13         -3.3680    -2.9100     2.2820 ha         1 LGZ       0.114500
     60 H14         -4.7100     0.9790    -1.9850 hc         1 LGZ       0.058700
     61 H15         -3.0380     2.7400    -2.1660 h1         1 LGZ       0.068700
     62 H16         -3.6660     4.1610     0.2190 hc         1 LGZ       0.067200
     63 H17         -4.8960     3.9050    -1.0180 hc         1 LGZ       0.067200
     64 H18         -5.7730     3.7820     2.0380 ha         1 LGZ       0.112000
     65 H19         -6.9360     1.9540     3.2900 ha         1 LGZ       0.108000
     66 H20         -6.7810    -0.4070     2.4850 ha         1 LGZ       0.107000
     67 H21         -5.4490    -0.9410     0.4320 ha         1 LGZ       0.123000
     68 H22         -0.8960    -1.8090    -2.7670 hn         1 LGZ       0.502000
     69 H23         -3.0410    -0.6880    -3.3870 h4         1 LGZ       0.204000
     70 H24          2.7420     1.2550    -2.5340 hc         1 LGZ       0.066700
     71 H25          1.8230     2.3070    -1.4800 hc         1 LGZ       0.066700
     72 H26          5.1400     1.3550    -2.4930 ha         1 LGZ       0.105500
     73 H27          7.2520     2.1380    -1.4480 ha         1 LGZ       0.116500
     74 H28          7.2080     3.2540     0.7810 ha         1 LGZ       0.114000
     75 H29          5.0380     3.5900     1.9610 ha         1 LGZ       0.116500
     76 H30          2.9200     2.8080     0.9240 ha         1 LGZ       0.105500
     77 H31          4.9840    -2.6670     2.2380 h1         1 LGZ       0.081700
     78 H32          5.9380     0.0340     1.3940 h1         1 LGZ       0.065200
     79 H33          6.1510    -0.6720     3.0170 h1         1 LGZ       0.065200
     80 H34          8.8080    -2.3370     0.4600 h1         1 LGZ       0.047700
     81 H35          7.5010    -1.4300    -0.3650 h1         1 LGZ       0.047700
     82 H36          7.1550    -3.6790     1.7510 hc         1 LGZ       0.068200
     83 H37          6.4880    -3.6890     0.1130 hc         1 LGZ       0.068200
     84 H38          0.5330     3.9510     0.4440 hn         1 LGZ       0.325500
     85 H39         -0.1700     2.4470     1.0160 hn         1 LGZ       0.325500
@<TRIPOS>BOND
     1     1     2 1   
     2     1    39 1   
     3     2     3 2   
     4     2     4 1   
     5     4     5 1   
     6     4    47 1   
     7     5     6 1   
     8     5    32 1   
     9     5    48 1   
    10     6     7 1   
    11     6     8 1   
    12     6    49 1   
    13     7    50 1   
    14     8     9 1   
    15     8    51 1   
    16     8    52 1   
    17     9    10 1   
    18     9    17 1   
    19     9    29 1   
    20    10    11 1   
    21    10    53 1   
    22    10    54 1   
    23    11    12 ar  
    24    11    16 ar  
    25    12    13 ar  
    26    12    55 1   
    27    13    14 ar  
    28    13    56 1   
    29    14    15 ar  
    30    14    57 1   
    31    15    16 ar  
    32    15    58 1   
    33    16    59 1   
    34    17    18 2   
    35    17    31 1   
    36    19    20 1   
    37    19    28 1   
    38    19    31 1   
    39    19    60 1   
    40    20    21 1   
    41    20    22 1   
    42    20    61 1   
    43    21    44 1   
    44    22    23 1   
    45    22    62 1   
    46    22    63 1   
    47    23    24 ar  
    48    23    28 ar  
    49    24    25 ar  
    50    24    64 1   
    51    25    26 ar  
    52    25    65 1   
    53    26    27 ar  
    54    26    66 1   
    55    27    28 ar  
    56    27    67 1   
    57    29    30 1   
    58    29    68 1   
    59    30    31 2   
    60    30    69 1   
    61    32    33 1   
    62    32    70 1   
    63    32    71 1   
    64    33    34 ar  
    65    33    38 ar  
    66    34    35 ar  
    67    34    72 1   
    68    35    36 ar  
    69    35    73 1   
    70    36    37 ar  
    71    36    74 1   
    72    37    38 ar  
    73    37    75 1   
    74    38    76 1   
    75    39    40 1   
    76    39    43 1   
    77    39    77 1   
    78    40    41 1   
    79    40    78 1   
    80    40    79 1   
    81    41    42 1   
    82    42    43 1   
    83    42    80 1   
    84    42    81 1   
    85    43    82 1   
    86    43    83 1   
    87    44    45 1   
    88    44    46 2   
    89    45    84 1   
    90    45    85 1   
@<TRIPOS>SUBSTRUCTURE
     1 LGZ         1 TEMP              0 ****  ****    0 ROOT
