@<TRIPOS>MOLECULE
LGZ
   85    90     1     0     0
SMALL
abcg2


@<TRIPOS>ATOM
      1 O01          4.8490    -1.8250     0.0770 os         1 LGZ      -0.465100
      2 C02          3.8120    -1.0900     0.4930 c          1 LGZ       0.640100
      3 O03          3.5960    -0.8180     1.6550 o          1 LGZ      -0.535000
      4 NP4          3.0420    -0.7290    -0.5550 ns         1 LGZ      -0.496900
      5 C05          2.0360     0.3060    -0.4670 c3         1 LGZ       0.088700
      6 C06          0.6980    -0.1720    -1.0470 c3         1 LGZ       0.161300
      7 O07          0.7890    -0.4040    -2.4360 oh         1 LGZ      -0.658000
      8 C08          0.1840    -1.3860    -0.2730 c3         1 LGZ      -0.113400
      9 C09         -1.3050    -1.7180    -0.4290 c5         1 LGZ       0.103200
     10 C10         -1.6300    -2.9780     0.3940 c3         1 LGZ      -0.014100
     11 C11         -3.0900    -3.3330     0.4380 ca         1 LGZ      -0.085300
     12 C12         -3.7090    -3.9780    -0.6320 ca         1 LGZ      -0.095500
     13 C13         -5.0620    -4.2870    -0.5900 ca         1 LGZ      -0.114500
     14 C14         -5.8190    -3.9680     0.5310 ca         1 LGZ      -0.108000
     15 C15         -5.2090    -3.3420     1.6100 ca         1 LGZ      -0.114500
     16 C16         -3.8580    -3.0250     1.5590 ca         1 LGZ      -0.095500
     17 C17         -2.1700    -0.5260     0.0280 c          1 LGZ       0.602300
     18 O18         -2.1710    -0.1290     1.1820 o          1 LGZ      -0.529100
     19 C19         -3.8440     1.0740    -1.2280 c5         1 LGZ       0.080800
     20 C20         -3.2280     2.4890    -1.2090 c5         1 LGZ       0.196300
     21 O1          -2.1920     2.4610    -0.2330 os         1 LGZ      -0.440100
     22 C22         -4.3760     3.3980    -0.7550 c5         1 LGZ      -0.056100
     23 C23         -5.2080     2.4920     0.1110 ca         1 LGZ      -0.085300
     24 C24         -6.1790     2.8120     1.0460 ca         1 LGZ      -0.097000
     25 C25         -6.8320     1.7810     1.7180 ca         1 LGZ      -0.112000
     26 C26         -6.5150     0.4530     1.4520 ca         1 LGZ      -0.114000
     27 C27         -5.5410     0.1340     0.5110 ca         1 LGZ      -0.080000
     28 C28         -4.8950     1.1620    -0.1510 ca         1 LGZ      -0.074300
     29 N29         -1.7020    -1.8730    -1.8100 nu         1 LGZ      -0.798200
     30 C30         -2.5370    -0.8930    -2.1590 c2         1 LGZ       0.110000
     31 C35         -2.8870    -0.0620    -1.1280 ce         1 LGZ      -0.341400
     32 C36          2.5340     1.5970    -1.1340 c3         1 LGZ      -0.052100
     33 C37          3.8030     2.0820    -0.4930 ca         1 LGZ      -0.086300
     34 C38          5.0480     1.6730    -0.9640 ca         1 LGZ      -0.105500
     35 C39          6.2160     2.0530    -0.3170 ca         1 LGZ      -0.104500
     36 C40          6.1570     2.8610     0.8100 ca         1 LGZ      -0.110000
     37 C41          4.9220     3.2860     1.2840 ca         1 LGZ      -0.104500
     38 C42          3.7580     2.8950     0.6380 ca         1 LGZ      -0.105500
     39 C44          5.8070    -2.2420     1.0540 c5         1 LGZ       0.161300
     40 C45          6.7220    -1.1010     1.4780 c5         1 LGZ       0.127600
     41 O46          7.7690    -1.0390     0.5230 os         1 LGZ      -0.462000
     42 C47          7.7110    -2.1630    -0.3430 c5         1 LGZ       0.157600
     43 C48          6.7840    -3.1590     0.3400 c5         1 LGZ      -0.119400
     44 C1          -1.2860     3.4380    -0.2260 c          1 LGZ       0.633100
     45 N1          -0.3520     3.2040     0.7190 nt         1 LGZ      -0.601000
     46 O2          -1.2910     4.3860    -0.9830 o          1 LGZ      -0.552000
     47 H1           3.3950    -0.9530    -1.4730 hn         1 LGZ       0.314500
     48 H2           1.8730     0.5090     0.5930 h1         1 LGZ       0.091700
     49 H3          -0.0040     0.6600    -0.9340 h1         1 LGZ       0.100700
     50 H4           1.2340    -1.2460    -2.5820 ho         1 LGZ       0.434000
     51 H5           0.3600    -1.2220     0.7940 hc         1 LGZ       0.067200
     52 H6           0.7750    -2.2690    -0.5410 hc         1 LGZ       0.067200
     53 H7          -1.0500    -3.8090    -0.0170 hc         1 LGZ       0.057700
     54 H8          -1.2630    -2.8130     1.4090 hc         1 LGZ       0.057700
     55 H9          -3.1300    -4.2490    -1.5050 ha         1 LGZ       0.114500
     56 H10         -5.5250    -4.7850    -1.4320 ha         1 LGZ       0.112500
     57 H11         -6.8720    -4.2130     0.5670 ha         1 LGZ       0.112000
     58 H12         -5.7870    -3.0930     2.4910 ha         1 LGZ       0.112500
     59 H13         -3.3940    -2.5280     2.4020 ha         1 LGZ       0.114500
     60 H14         -4.3630     0.9900    -2.1920 hc         1 LGZ       0.058700
     61 H15         -2.8210     2.7680    -2.1820 h1         1 LGZ       0.068700
     62 H16         -4.0360     4.3060    -0.2550 hc         1 LGZ       0.067200
     63 H17         -4.9460     3.7190    -1.6330 hc         1 LGZ       0.067200
     64 H18         -6.4270     3.8440     1.2590 ha         1 LGZ       0.112000
     65 H19         -7.5880     2.0150     2.4570 ha         1 LGZ       0.108000
     66 H20         -7.0270    -0.3380     1.9870 ha         1 LGZ       0.107000
     67 H21         -5.2840    -0.8990     0.3120 ha         1 LGZ       0.123000
     68 H22         -1.1840    -2.4140    -2.4800 hn         1 LGZ       0.502000
     69 H23         -2.8790    -0.8240    -3.1840 h4         1 LGZ       0.204000
     70 H24          2.6880     1.4200    -2.2010 hc         1 LGZ       0.066700
     71 H25          1.7500     2.3530    -1.0470 hc         1 LGZ       0.066700
     72 H26          5.1110     1.0440    -1.8450 ha         1 LGZ       0.105500
     73 H27          7.1730     1.7060    -0.6860 ha         1 LGZ       0.116500
     74 H28          7.0660     3.1570     1.3170 ha         1 LGZ       0.114000
     75 H29          4.8650     3.9220     2.1580 ha         1 LGZ       0.116500
     76 H30          2.7980     3.2240     1.0200 ha         1 LGZ       0.105500
     77 H31          5.3060    -2.7140     1.9000 h1         1 LGZ       0.081700
     78 H32          6.2090    -0.1380     1.5280 h1         1 LGZ       0.065200
     79 H33          7.1260    -1.3190     2.4740 h1         1 LGZ       0.065200
     80 H34          8.7170    -2.5610    -0.4910 h1         1 LGZ       0.047700
     81 H35          7.3200    -1.8680    -1.3230 h1         1 LGZ       0.047700
     82 H36          7.3260    -3.7460     1.0840 hc         1 LGZ       0.068200
     83 H37          6.3010    -3.8530    -0.3480 hc         1 LGZ       0.068200
     84 H38          0.2920     3.9380     0.9540 hn         1 LGZ       0.325500
     85 H39         -0.4760     2.4630     1.3890 hn         1 LGZ       0.325500
@<TRIPOS>BOND
     1     1     2 1   
     2     1    39 1   
     3     2     3 2   
     4     2     4 1   
     5     4     5 1   
     6     4    47 1   
     7     5     6 1   
     8     5    32 1   
     9     5    48 1   
    10     6     7 1   
    11     6     8 1   
    12     6    49 1   
    13     7    50 1   
    14     8     9 1   
    15     8    51 1   
    16     8    52 1   
    17     9    10 1   
    18     9    17 1   
    19     9    29 1   
    20    10    11 1   
    21    10    53 1   
    22    10    54 1   
    23    11    12 ar  
    24    11    16 ar  
    25    12    13 ar  
    26    12    55 1   
    27    13    14 ar  
    28    13    56 1   
    29    14    15 ar  
    30    14    57 1   
    31    15    16 ar  
    32    15    58 1   
    33    16    59 1   
    34    17    18 2   
    35    17    31 1   
    36    19    20 1   
    37    19    28 1   
    38    19    31 1   
    39    19    60 1   
    40    20    21 1   
    41    20    22 1   
    42    20    61 1   
    43    21    44 1   
    44    22    23 1   
    45    22    62 1   
    46    22    63 1   
    47    23    24 ar  
    48    23    28 ar  
    49    24    25 ar  
    50    24    64 1   
    51    25    26 ar  
    52    25    65 1   
    53    26    27 ar  
    54    26    66 1   
    55    27    28 ar  
    56    27    67 1   
    57    29    30 1   
    58    29    68 1   
    59    30    31 2   
    60    30    69 1   
    61    32    33 1   
    62    32    70 1   
    63    32    71 1   
    64    33    34 ar  
    65    33    38 ar  
    66    34    35 ar  
    67    34    72 1   
    68    35    36 ar  
    69    35    73 1   
    70    36    37 ar  
    71    36    74 1   
    72    37    38 ar  
    73    37    75 1   
    74    38    76 1   
    75    39    40 1   
    76    39    43 1   
    77    39    77 1   
    78    40    41 1   
    79    40    78 1   
    80    40    79 1   
    81    41    42 1   
    82    42    43 1   
    83    42    80 1   
    84    42    81 1   
    85    43    82 1   
    86    43    83 1   
    87    44    45 1   
    88    44    46 2   
    89    45    84 1   
    90    45    85 1   
@<TRIPOS>SUBSTRUCTURE
     1 LGZ         1 TEMP              0 ****  ****    0 ROOT
