@<TRIPOS>MOLECULE
LH0
   41    43     1     0     0
SMALL
No Charge or Current Charge


@<TRIPOS>ATOM
      1 F1         -19.2990    40.9880   -12.5370 f          1 LH0      -0.118500
      2 C2         -13.9350    42.1780   -16.3020 ca         1 LH0       0.141500
      3 C3         -12.6780    41.9380   -16.8830 ca         1 LH0      -0.100500
      4 C4         -11.7600    41.0810   -16.2550 ca         1 LH0      -0.073000
      5 C5         -12.1020    40.4600   -15.0410 ca         1 LH0      -0.100500
      6 C6         -17.5400    41.7000   -13.9510 cc         1 LH0       0.164300
      7 C7         -18.9910    41.3010   -13.8180 c3         1 LH0       0.159000
      8 C8         -16.9870    42.7940   -13.2460 cc         1 LH0      -0.167000
      9 C11        -15.0800    44.8170   -12.2200 cc         1 LH0       0.335900
     10 C12        -12.9470    45.3590   -12.4510 cd         1 LH0       0.536300
     11 C13        -10.5630    45.9710   -12.7030 c          1 LH0       0.604100
     12 C14         -9.5460    47.0110   -12.1860 c3         1 LH0      -0.128700
     13 N          -15.5250    41.7970   -14.5020 na         1 LH0       0.227000
     14 C          -13.3570    40.6960   -14.4550 ca         1 LH0       0.141500
     15 O          -10.2500    45.0990   -13.5000 o          1 LH0      -0.570100
     16 C1         -14.2810    41.5620   -15.0800 ca         1 LH0      -0.008200
     17 C10        -14.7190    43.8390   -13.1170 cd         1 LH0      -0.233000
     18 C15         -9.0070    47.8900   -13.3400 c3         1 LH0      -0.086100
     19 C16         -8.4010    46.3310   -11.3960 c3         1 LH0      -0.086100
     20 C9         -15.6740    42.8630   -13.6010 cd         1 LH0      -0.029000
     21 F          -19.8140    42.3100   -14.1860 f          1 LH0      -0.118500
     22 N1         -16.6770    41.0660   -14.7290 nd         1 LH0      -0.464800
     23 N2         -14.0760    45.6770   -11.8430 nc         1 LH0      -0.706000
     24 S          -13.0210    43.9680   -13.5430 ss         1 LH0       0.082600
     25 Cl         -13.7380    39.9070   -12.9230 cl         1 LH0      -0.155000
     26 Cl1        -15.0510    43.2740   -17.1200 cl         1 LH0      -0.155000
     27 H1         -12.4150    42.4200   -17.8220 ha         1 LH0       0.140000
     28 H2         -10.7870    40.8970   -16.7060 ha         1 LH0       0.128000
     29 H3         -11.3930    39.7960   -14.5520 ha         1 LH0       0.140000
     30 H4         -19.2040    40.4310   -14.4480 h2         1 LH0       0.077700
     31 H5         -17.5350    43.4340   -12.5620 ha         1 LH0       0.159000
     32 H6         -16.0610    44.9710   -11.7900 h4         1 LH0       0.046100
     33 H7         -10.0650    47.6800   -11.4880 hc         1 LH0       0.058700
     34 H8          -8.3310    48.6640   -12.9570 hc         1 LH0       0.047367
     35 H9          -8.4550    47.2850   -14.0700 hc         1 LH0       0.047367
     36 H10         -9.8320    48.3900   -13.8630 hc         1 LH0       0.047367
     37 H11         -8.8030    45.7430   -10.5620 hc         1 LH0       0.047367
     38 H12         -7.8240    45.6590   -12.0420 hc         1 LH0       0.047367
     39 H13         -7.7160    47.0810   -10.9820 hc         1 LH0       0.047367
     40 H14        -11.9480    46.8710   -11.5490 hn         1 LH0       0.343500
     41 N3         -11.8320    46.1080   -12.1980 ns         1 LH0      -0.469400
@<TRIPOS>BOND
     1     1     7 1   
     2     2     3 ar  
     3     2    16 ar  
     4     2    26 1   
     5     3     4 ar  
     6     3    27 1   
     7     4     5 ar  
     8     4    28 1   
     9     5    14 ar  
    10     5    29 1   
    11     6     7 1   
    12     6     8 1   
    13     6    22 2   
    14     7    21 1   
    15     7    30 1   
    16     8    20 2   
    17     8    31 1   
    18     9    17 2   
    19     9    23 1   
    20     9    32 1   
    21    10    23 2   
    22    10    24 1   
    23    10    41 1   
    24    11    12 1   
    25    11    15 2   
    26    11    41 1   
    27    12    18 1   
    28    12    19 1   
    29    12    33 1   
    30    13    16 1   
    31    13    20 1   
    32    13    22 1   
    33    14    16 ar  
    34    14    25 1   
    35    17    20 1   
    36    17    24 1   
    37    18    34 1   
    38    18    35 1   
    39    18    36 1   
    40    19    37 1   
    41    19    38 1   
    42    19    39 1   
    43    40    41 1   
@<TRIPOS>SUBSTRUCTURE
     1 LH0         1 TEMP              0 ****  ****    0 ROOT
