@<TRIPOS>MOLECULE
LH0
   41    43     1     0     0
SMALL
abcg2


@<TRIPOS>ATOM
      1 F1         -19.3340    40.7880   -13.0840 f          1 LH0      -0.118500
      2 C2         -13.7930    42.2850   -16.1580 ca         1 LH0       0.141500
      3 C3         -12.5250    42.0590   -16.6670 ca         1 LH0      -0.100500
      4 C4         -11.6160    41.3350   -15.9110 ca         1 LH0      -0.073000
      5 C5         -11.9570    40.8330   -14.6640 ca         1 LH0      -0.100500
      6 C6         -17.4960    41.8020   -14.0950 cc         1 LH0       0.164300
      7 C7         -18.8380    41.1990   -14.2850 c3         1 LH0       0.159000
      8 C8         -17.1230    42.8640   -13.2550 cc         1 LH0      -0.167000
      9 C11        -14.9960    44.5610   -11.6570 cc         1 LH0       0.335900
     10 C12        -13.0360    45.3780   -12.1550 cd         1 LH0       0.536300
     11 C13        -10.8560    46.1310   -12.8800 c          1 LH0       0.604100
     12 C14         -9.6450    46.9260   -12.4550 c3         1 LH0      -0.128700
     13 N          -15.4340    42.0600   -14.3820 na         1 LH0       0.227000
     14 C          -13.2290    41.0630   -14.1710 ca         1 LH0       0.141500
     15 O          -10.9260    45.5030   -13.9200 o          1 LH0      -0.570100
     16 C1         -14.1560    41.7950   -14.9080 ca         1 LH0      -0.008200
     17 C10        -14.8300    43.9150   -12.8450 cd         1 LH0      -0.233000
     18 C15         -9.0200    47.6490   -13.6410 c3         1 LH0      -0.086100
     19 C16         -8.6450    45.9740   -11.7910 c3         1 LH0      -0.086100
     20 C9         -15.7690    43.0070   -13.4610 cd         1 LH0      -0.029000
     21 F          -19.7140    42.1290   -14.7580 f          1 LH0      -0.118500
     22 N1         -16.4730    41.3270   -14.7710 nd         1 LH0      -0.464800
     23 N2         -13.9860    45.3830   -11.2730 nc         1 LH0      -0.706000
     24 S          -13.3000    44.3730   -13.5350 ss         1 LH0       0.082600
     25 CL         -13.6720    40.4710   -12.6200 cl         1 LH0      -0.155000
     26 CL1        -14.9310    43.2110   -17.0560 cl         1 LH0      -0.155000
     27 H1         -12.2510    42.4490   -17.6370 ha         1 LH0       0.140000
     28 H2         -10.6220    41.1610   -16.3000 ha         1 LH0       0.128000
     29 H3         -11.2400    40.2710   -14.0820 ha         1 LH0       0.140000
     30 H4         -18.8200    40.3500   -14.9700 h2         1 LH0       0.077700
     31 H5         -17.7480    43.4510   -12.6030 ha         1 LH0       0.159000
     32 H6         -15.8600    44.4490   -11.0160 h4         1 LH0       0.046100
     33 H7          -9.9520    47.6700   -11.7130 hc         1 LH0       0.058700
     34 H8          -8.1600    48.2270   -13.3040 hc         1 LH0       0.047367
     35 H9          -8.6720    46.9450   -14.3970 hc         1 LH0       0.047367
     36 H10         -9.7200    48.3380   -14.1120 hc         1 LH0       0.047367
     37 H11         -9.0790    45.4570   -10.9340 hc         1 LH0       0.047367
     38 H12         -8.2890    45.2250   -12.4990 hc         1 LH0       0.047367
     39 H13         -7.7820    46.5380   -11.4360 hc         1 LH0       0.047367
     40 H14        -11.8330    46.6440   -11.1310 hn         1 LH0       0.343500
     41 N3         -11.8910    46.1110   -11.9890 ns         1 LH0      -0.469400
@<TRIPOS>BOND
     1     1     7 1   
     2     2     3 ar  
     3     2    16 ar  
     4     2    26 1   
     5     3     4 ar  
     6     3    27 1   
     7     4     5 ar  
     8     4    28 1   
     9     5    14 ar  
    10     5    29 1   
    11     6     7 1   
    12     6     8 1   
    13     6    22 2   
    14     7    21 1   
    15     7    30 1   
    16     8    20 2   
    17     8    31 1   
    18     9    17 2   
    19     9    23 1   
    20     9    32 1   
    21    10    23 2   
    22    10    24 1   
    23    10    41 1   
    24    11    12 1   
    25    11    15 2   
    26    11    41 1   
    27    12    18 1   
    28    12    19 1   
    29    12    33 1   
    30    13    16 1   
    31    13    20 1   
    32    13    22 1   
    33    14    16 ar  
    34    14    25 1   
    35    17    20 1   
    36    17    24 1   
    37    18    34 1   
    38    18    35 1   
    39    18    36 1   
    40    19    37 1   
    41    19    38 1   
    42    19    39 1   
    43    40    41 1   
@<TRIPOS>SUBSTRUCTURE
     1 LH0         1 TEMP              0 ****  ****    0 ROOT
