@<TRIPOS>MOLECULE
LH3
   77    81     1     0     0
SMALL
abcg2


@<TRIPOS>ATOM
      1 O5           8.9640    -2.0400     1.9400 o          1 LH3      -0.578000
      2 C31          8.4850    -1.1670     1.2330 c          1 LH3       0.615000
      3 N3           9.0390    -0.6330     0.1190 ns         1 LH3      -0.530900
      4 C            8.2600     0.4140    -0.4850 c5         1 LH3       0.107700
      5 N2           7.2850    -0.5470     1.4220 ns         1 LH3      -0.509900
      6 C30          7.0400     0.5160     0.4790 c5         1 LH3       0.094700
      7 C2           5.7530     0.3160    -0.3330 c5         1 LH3       0.070300
      8 S            6.2140    -0.8620    -1.6450 ss         1 LH3      -0.404000
      9 C1           7.7520     0.0610    -1.8860 c5         1 LH3       0.032600
     10 C3           4.5560    -0.1420     0.4780 c3         1 LH3      -0.057400
     11 C4           3.2840    -0.2820    -0.3500 c3         1 LH3      -0.081400
     12 C5           2.0480    -0.4840     0.5150 c3         1 LH3      -0.063400
     13 C6           0.7890    -0.5880    -0.3310 c3         1 LH3      -0.158400
     14 C7          -0.4860    -0.5600     0.4800 c          1 LH3       0.619100
     15 O           -0.5280    -0.7080     1.6860 o          1 LH3      -0.565100
     16 N           -1.5930    -0.3470    -0.2730 ns         1 LH3      -0.383300
     17 N1          -2.8250    -0.1930     0.2990 nu         1 LH3      -0.673200
     18 C8          -3.5880     0.9110    -0.0790 ca         1 LH3       0.301000
     19 C13         -4.9780     0.7540    -0.2300 cp         1 LH3      -0.095000
     20 C14         -5.6290    -0.5720    -0.1030 cp         1 LH3      -0.004000
     21 C19         -6.5780    -0.8030     0.8910 ca         1 LH3      -0.119250
     22 C18         -7.2220    -2.0250     0.9820 ca         1 LH3      -0.055250
     23 C17         -6.9290    -3.0450     0.0810 ca         1 LH3      -0.145100
     24 C20         -7.6460    -4.3380     0.2220 c          1 LH3       0.606700
     25 O2          -7.2780    -5.2260    -0.6860 os         1 LH3      -0.438600
     26 C21         -7.9020    -6.5090    -0.6500 c3         1 LH3       0.153400
     27 O1          -8.4740    -4.5570     1.0730 o          1 LH3      -0.491500
     28 C16         -5.9830    -2.8210    -0.9180 ca         1 LH3      -0.055250
     29 C15         -5.3430    -1.5960    -1.0070 ca         1 LH3      -0.119250
     30 C12         -5.7710     1.8560    -0.5310 ca         1 LH3      -0.062500
     31 C11         -5.2090     3.1030    -0.7440 ca         1 LH3      -0.140000
     32 C10         -3.8370     3.2480    -0.6270 ca         1 LH3      -0.062500
     33 C9          -3.0170     2.1800    -0.2740 cp         1 LH3      -0.095000
     34 C22         -1.5710     2.4620    -0.0940 cp         1 LH3      -0.004000
     35 C27         -0.7890     2.8410    -1.1840 ca         1 LH3      -0.119250
     36 C26          0.5520     3.1400    -1.0220 ca         1 LH3      -0.055250
     37 C25          1.1390     3.0820     0.2400 ca         1 LH3      -0.145100
     38 C24          0.3540     2.7300     1.3370 ca         1 LH3      -0.055250
     39 C23         -0.9850     2.4240     1.1690 ca         1 LH3      -0.119250
     40 C28          2.5860     3.3870     0.3600 c          1 LH3       0.606700
     41 O3           3.3010     3.6390    -0.5800 o          1 LH3      -0.491500
     42 O4           3.0150     3.3490     1.6130 os         1 LH3      -0.438600
     43 C29          4.3870     3.6560     1.8500 c3         1 LH3       0.153400
     44 H3           9.9080    -0.9660    -0.2620 hn         1 LH3       0.345500
     45 H2           6.8590    -0.5490     2.3330 hn         1 LH3       0.334500
     46 H            8.8250     1.3480    -0.5280 h1         1 LH3       0.065700
     47 H30          7.0050     1.4870     0.9840 h1         1 LH3       0.056700
     48 H11C         7.5490     0.9710    -2.4540 h1         1 LH3       0.078200
     49 H12C         8.4700    -0.5360    -2.4460 h1         1 LH3       0.078200
     50 HA           5.5090     1.2700    -0.8150 h1         1 LH3       0.077700
     51 H31C         4.7840    -1.0870     0.9770 hc         1 LH3       0.053200
     52 H32C         4.3880     0.5960     1.2710 hc         1 LH3       0.053200
     53 H41C         3.1520     0.6140    -0.9670 hc         1 LH3       0.048200
     54 H42C         3.3860    -1.1170    -1.0510 hc         1 LH3       0.048200
     55 H51C         2.1650    -1.3800     1.1290 hc         1 LH3       0.056700
     56 H52C         1.9560     0.3560     1.2090 hc         1 LH3       0.056700
     57 H61C         0.7580     0.2350    -1.0530 hc         1 LH3       0.060200
     58 H62C         0.8080    -1.5070    -0.9270 hc         1 LH3       0.060200
     59 HB          -1.5250    -0.3270    -1.2820 hn         1 LH3       0.310500
     60 H1          -3.3420    -1.0590     0.3570 hn         1 LH3       0.476000
     61 H12         -6.8400     1.7190    -0.6350 ha         1 LH3       0.120000
     62 H19         -6.8090    -0.0200     1.6020 ha         1 LH3       0.125500
     63 H15         -4.6260    -1.4310    -1.8020 ha         1 LH3       0.125500
     64 H18         -7.9550    -2.1840     1.7610 ha         1 LH3       0.135500
     65 H16         -5.7420    -3.5900    -1.6380 ha         1 LH3       0.135500
     66 H211        -7.7030    -7.0210     0.2910 h1         1 LH3       0.048533
     67 H212        -8.9790    -6.4300    -0.7980 h1         1 LH3       0.048533
     68 H213        -7.4660    -7.0750    -1.4680 h1         1 LH3       0.048533
     69 H11         -5.8310     3.9500    -1.0020 ha         1 LH3       0.122000
     70 H10         -3.3830     4.2180    -0.7860 ha         1 LH3       0.120000
     71 H27         -1.2300     2.8840    -2.1720 ha         1 LH3       0.125500
     72 H23         -1.5780     2.1430     2.0290 ha         1 LH3       0.125500
     73 H26          1.1440     3.4140    -1.8850 ha         1 LH3       0.135500
     74 H24          0.7780     2.6860     2.3310 ha         1 LH3       0.135500
     75 H291         4.6240     4.6760     1.5500 h1         1 LH3       0.048533
     76 H292         4.5360     3.5500     2.9210 h1         1 LH3       0.048533
     77 H293         5.0500     2.9680     1.3250 h1         1 LH3       0.048533
@<TRIPOS>BOND
     1     1     2 2   
     2     2     3 1   
     3     2     5 1   
     4     3     4 1   
     5     3    44 1   
     6     4     6 1   
     7     4     9 1   
     8     4    46 1   
     9     5     6 1   
    10     5    45 1   
    11     6     7 1   
    12     6    47 1   
    13     7     8 1   
    14     7    10 1   
    15     7    50 1   
    16     8     9 1   
    17     9    48 1   
    18     9    49 1   
    19    10    11 1   
    20    10    51 1   
    21    10    52 1   
    22    11    12 1   
    23    11    53 1   
    24    11    54 1   
    25    12    13 1   
    26    12    55 1   
    27    12    56 1   
    28    13    14 1   
    29    13    57 1   
    30    13    58 1   
    31    14    15 2   
    32    14    16 1   
    33    16    17 1   
    34    16    59 1   
    35    17    18 1   
    36    17    60 1   
    37    18    19 ar  
    38    18    33 ar  
    39    19    20 1   
    40    19    30 ar  
    41    20    21 ar  
    42    20    29 ar  
    43    21    22 ar  
    44    21    62 1   
    45    22    23 ar  
    46    22    64 1   
    47    23    24 1   
    48    23    28 ar  
    49    24    25 1   
    50    24    27 2   
    51    25    26 1   
    52    26    66 1   
    53    26    67 1   
    54    26    68 1   
    55    28    29 ar  
    56    28    65 1   
    57    29    63 1   
    58    30    31 ar  
    59    30    61 1   
    60    31    32 ar  
    61    31    69 1   
    62    32    33 ar  
    63    32    70 1   
    64    33    34 1   
    65    34    35 ar  
    66    34    39 ar  
    67    35    36 ar  
    68    35    71 1   
    69    36    37 ar  
    70    36    73 1   
    71    37    38 ar  
    72    37    40 1   
    73    38    39 ar  
    74    38    74 1   
    75    39    72 1   
    76    40    41 2   
    77    40    42 1   
    78    42    43 1   
    79    43    75 1   
    80    43    76 1   
    81    43    77 1   
@<TRIPOS>SUBSTRUCTURE
     1 LH3         1 TEMP              0 ****  ****    0 ROOT
