@<TRIPOS>MOLECULE
LH3
   77    81     1     0     0
SMALL
No Charge or Current Charge


@<TRIPOS>ATOM
      1 O5           7.7570     2.6020     1.5840 o          1 LH3      -0.578000
      2 C31          7.5700     2.0390     0.5240 c          1 LH3       0.615000
      3 N3           8.5070     1.3570    -0.1730 ns         1 LH3      -0.530900
      4 C            7.9860     0.7700    -1.4110 c5         1 LH3       0.107700
      5 N2           6.4010     2.0140    -0.1540 ns         1 LH3      -0.509900
      6 C30          6.4710     1.2300    -1.3920 c5         1 LH3       0.094700
      7 C2           5.5690    -0.0480    -1.1950 c5         1 LH3       0.070300
      8 S            6.5650    -1.2110    -0.1540 ss         1 LH3      -0.404000
      9 C1           8.0400    -0.7770    -1.1830 c5         1 LH3       0.032600
     10 C3           4.1760     0.2040    -0.5650 c3         1 LH3      -0.057400
     11 C4           3.1920    -0.9860    -0.6390 c3         1 LH3      -0.081400
     12 C5           1.8540    -0.6560     0.0530 c3         1 LH3      -0.063400
     13 C6           0.7770    -1.7530    -0.0770 c3         1 LH3      -0.158400
     14 C7          -0.4740    -1.3520     0.7120 c          1 LH3       0.619100
     15 O           -0.5740    -1.5400     1.9190 o          1 LH3      -0.565100
     16 N           -1.4870    -0.7710    -0.0520 ns         1 LH3      -0.383300
     17 N1          -2.7530    -0.3190     0.4850 nu         1 LH3      -0.673200
     18 C8          -3.3230     0.8950     0.0470 ca         1 LH3       0.301000
     19 C13         -4.7020     0.8790    -0.3190 cp         1 LH3      -0.095000
     20 C14         -5.5320    -0.3640    -0.2660 cp         1 LH3      -0.004000
     21 C19         -6.7150    -0.4040     0.5040 ca         1 LH3      -0.119250
     22 C18         -7.5090    -1.5630     0.5560 ca         1 LH3      -0.055250
     23 C17         -7.1450    -2.7170    -0.1710 ca         1 LH3      -0.145100
     24 C20         -8.0120    -3.9550    -0.1040 c          1 LH3       0.606700
     25 O2          -7.5410    -5.0020    -0.8560 os         1 LH3      -0.438600
     26 C21         -8.2950    -6.2290    -0.8610 c3         1 LH3       0.153400
     27 O1          -9.0380    -4.0110     0.5630 o          1 LH3      -0.491500
     28 C16         -5.9690    -2.6810    -0.9550 ca         1 LH3      -0.055250
     29 C15         -5.1790    -1.5200    -1.0020 ca         1 LH3      -0.119250
     30 C12         -5.3080     2.0780    -0.7570 ca         1 LH3      -0.062500
     31 C11         -4.5730     3.2650    -0.8490 ca         1 LH3      -0.140000
     32 C10         -3.2200     3.2790    -0.4870 ca         1 LH3      -0.062500
     33 C9          -2.5670     2.1110    -0.0230 cp         1 LH3      -0.095000
     34 C22         -1.1380     2.2420     0.4100 cp         1 LH3      -0.004000
     35 C27         -0.1820     2.8550    -0.4350 ca         1 LH3      -0.119250
     36 C26          1.1510     3.0260    -0.0250 ca         1 LH3      -0.055250
     37 C25          1.5720     2.5900     1.2500 ca         1 LH3      -0.145100
     38 C24          0.6210     1.9910     2.1080 ca         1 LH3      -0.055250
     39 C23         -0.7120     1.8280     1.6930 ca         1 LH3      -0.119250
     40 C28          3.0190     2.7450     1.6600 c          1 LH3       0.606700
     41 O3           3.8650     3.2530     0.9350 o          1 LH3      -0.491500
     42 O4           3.2980     2.2440     2.9060 os         1 LH3      -0.438600
     43 C29          4.6600     2.2920     3.3680 c3         1 LH3       0.153400
     44 H3           9.4460     1.2810     0.1950 hn         1 LH3       0.345500
     45 H2           5.5900     2.4940     0.2240 hn         1 LH3       0.334500
     46 H            8.5350     1.0970    -2.3050 h1         1 LH3       0.065700
     47 H30          6.1880     1.8170    -2.2760 h1         1 LH3       0.056700
     48 H11C         7.9640    -1.3060    -2.1430 h1         1 LH3       0.078200
     49 H12C         8.9690    -1.1020    -0.6970 h1         1 LH3       0.078200
     50 HA           5.4150    -0.5210    -2.1740 h1         1 LH3       0.077700
     51 H31C         4.2980     0.4810     0.4880 hc         1 LH3       0.053200
     52 H32C         3.7100     1.0630    -1.0640 hc         1 LH3       0.053200
     53 H41C         3.0100    -1.2410    -1.6900 hc         1 LH3       0.048200
     54 H42C         3.6380    -1.8680    -0.1630 hc         1 LH3       0.048200
     55 H51C         2.0420    -0.4590     1.1160 hc         1 LH3       0.056700
     56 H52C         1.4520     0.2680    -0.3780 hc         1 LH3       0.056700
     57 H61C         0.5340    -1.8620    -1.1400 hc         1 LH3       0.060200
     58 H62C         1.1750    -2.6920     0.3270 hc         1 LH3       0.060200
     59 HB          -1.3460    -0.7230    -1.0590 hn         1 LH3       0.310500
     60 H1          -3.4280    -1.0860     0.5720 hn         1 LH3       0.476000
     61 H12         -6.3580     2.0790    -1.0420 ha         1 LH3       0.120000
     62 H19         -7.0140     0.4720     1.0740 ha         1 LH3       0.125500
     63 H15         -4.2880    -1.5090    -1.6270 ha         1 LH3       0.125500
     64 H18         -8.4110    -1.5590     1.1660 ha         1 LH3       0.135500
     65 H16         -5.6600    -3.5480    -1.5370 ha         1 LH3       0.135500
     66 H211        -8.3700    -6.6460     0.1520 h1         1 LH3       0.048533
     67 H212        -9.3090    -6.0640    -1.2460 h1         1 LH3       0.048533
     68 H213        -7.8060    -6.9740    -1.5000 h1         1 LH3       0.048533
     69 H11         -5.0540     4.1780    -1.1930 ha         1 LH3       0.122000
     70 H10         -2.6700     4.2170    -0.5430 ha         1 LH3       0.120000
     71 H27         -0.4810     3.1970    -1.4230 ha         1 LH3       0.125500
     72 H23         -1.4280     1.3710     2.3710 ha         1 LH3       0.125500
     73 H26          1.8600     3.4920    -0.7070 ha         1 LH3       0.135500
     74 H24          0.9050     1.6430     3.0990 ha         1 LH3       0.135500
     75 H291         5.0300     3.3250     3.3930 h1         1 LH3       0.048533
     76 H292         4.7340     1.8800     4.3820 h1         1 LH3       0.048533
     77 H293         5.3140     1.7020     2.7140 h1         1 LH3       0.048533
@<TRIPOS>BOND
     1     1     2 2   
     2     2     3 1   
     3     2     5 1   
     4     3     4 1   
     5     3    44 1   
     6     4     6 1   
     7     4     9 1   
     8     4    46 1   
     9     5     6 1   
    10     5    45 1   
    11     6     7 1   
    12     6    47 1   
    13     7     8 1   
    14     7    10 1   
    15     7    50 1   
    16     8     9 1   
    17     9    48 1   
    18     9    49 1   
    19    10    11 1   
    20    10    51 1   
    21    10    52 1   
    22    11    12 1   
    23    11    53 1   
    24    11    54 1   
    25    12    13 1   
    26    12    55 1   
    27    12    56 1   
    28    13    14 1   
    29    13    57 1   
    30    13    58 1   
    31    14    15 2   
    32    14    16 1   
    33    16    17 1   
    34    16    59 1   
    35    17    18 1   
    36    17    60 1   
    37    18    19 ar  
    38    18    33 ar  
    39    19    20 1   
    40    19    30 ar  
    41    20    21 ar  
    42    20    29 ar  
    43    21    22 ar  
    44    21    62 1   
    45    22    23 ar  
    46    22    64 1   
    47    23    24 1   
    48    23    28 ar  
    49    24    25 1   
    50    24    27 2   
    51    25    26 1   
    52    26    66 1   
    53    26    67 1   
    54    26    68 1   
    55    28    29 ar  
    56    28    65 1   
    57    29    63 1   
    58    30    31 ar  
    59    30    61 1   
    60    31    32 ar  
    61    31    69 1   
    62    32    33 ar  
    63    32    70 1   
    64    33    34 1   
    65    34    35 ar  
    66    34    39 ar  
    67    35    36 ar  
    68    35    71 1   
    69    36    37 ar  
    70    36    73 1   
    71    37    38 ar  
    72    37    40 1   
    73    38    39 ar  
    74    38    74 1   
    75    39    72 1   
    76    40    41 2   
    77    40    42 1   
    78    42    43 1   
    79    43    75 1   
    80    43    76 1   
    81    43    77 1   
@<TRIPOS>SUBSTRUCTURE
     1 LH3         1 TEMP              0 ****  ****    0 ROOT
