@<TRIPOS>MOLECULE
LH4
   97   103     1     0     0
SMALL
abcg2


@<TRIPOS>ATOM
      1 O7           7.2990     7.3170    -1.7540 o          1 LH4      -0.583000
      2 C35          7.3400     6.2300    -1.1970 c          1 LH4       0.612000
      3 N5           8.1930     5.8610    -0.2080 ns         1 LH4      -0.522900
      4 C            7.9670     4.5300     0.2900 c5         1 LH4       0.100700
      5 N4           6.5450     5.1580    -1.4630 ns         1 LH4      -0.511900
      6 C34          6.8720     3.9930    -0.6800 c5         1 LH4       0.098700
      7 C2           5.6930     3.4780     0.1530 c5         1 LH4       0.077300
      8 S            5.6180     4.6090     1.5820 ss         1 LH4      -0.420000
      9 C1           7.4190     4.4950     1.7220 c5         1 LH4       0.030600
     10 C3           4.3780     3.3800    -0.5970 c3         1 LH4      -0.062400
     11 C4           3.2480     2.8100     0.2500 c3         1 LH4      -0.076400
     12 C5           2.0160     2.4700    -0.5770 c3         1 LH4      -0.065400
     13 C6           0.9280     1.8470     0.2820 c3         1 LH4      -0.159400
     14 C7          -0.1390     1.1270    -0.5090 c          1 LH4       0.618100
     15 O           -0.2140     1.1360    -1.7220 o          1 LH4      -0.562100
     16 N           -1.0060     0.4400     0.2750 ns         1 LH4      -0.387300
     17 N1          -1.9490    -0.3900    -0.2660 nu         1 LH4      -0.676200
     18 C8          -2.0260    -1.6960     0.2140 ca         1 LH4       0.312000
     19 C13         -3.2920    -2.2990     0.3240 cp         1 LH4      -0.106000
     20 C14         -4.5350    -1.5570     0.0010 cp         1 LH4       0.021500
     21 C19         -5.3130    -1.9340    -1.0920 ca         1 LH4      -0.122750
     22 C18         -6.5000    -1.2800    -1.3780 ca         1 LH4      -0.017250
     23 C17         -6.9110    -0.2340    -0.5630 ca         1 LH4      -0.308000
     24 S1          -8.4670     0.5520    -0.8770 sy         1 LH4       1.149100
     25 O2          -8.7780     0.3940    -2.2870 o          1 LH4      -0.534250
     26 N2          -9.5940    -0.3170    -0.0340 n3         1 LH4      -0.707000
     27 C23         -9.5170    -0.2580     1.4270 c6         1 LH4       0.148800
     28 C22        -10.8170    -0.7940     1.9980 c6         1 LH4       0.154600
     29 O3         -11.0850    -2.1000     1.5460 os         1 LH4      -0.442500
     30 C21        -11.1730    -2.1410     0.1420 c6         1 LH4       0.154600
     31 C20         -9.8900    -1.6670    -0.5180 c6         1 LH4       0.148800
     32 O1          -8.4310     1.8810    -0.2910 o          1 LH4      -0.534250
     33 C16         -6.1490     0.1650     0.5280 ca         1 LH4      -0.017250
     34 C15         -4.9660    -0.5000     0.8050 ca         1 LH4      -0.122750
     35 C12         -3.4020    -3.6150     0.7540 ca         1 LH4      -0.058000
     36 C11         -2.2820    -4.3400     1.1250 ca         1 LH4      -0.142000
     37 C10         -1.0380    -3.7420     1.0300 ca         1 LH4      -0.058000
     38 C9          -0.8840    -2.4400     0.5570 cp         1 LH4      -0.106000
     39 C24          0.5060    -1.9440     0.4020 cp         1 LH4       0.021500
     40 C29          1.3410    -1.8480     1.5140 ca         1 LH4      -0.122750
     41 C28          2.6650    -1.4640     1.3800 ca         1 LH4      -0.017250
     42 C27          3.1610    -1.1730     0.1150 ca         1 LH4      -0.308000
     43 C26          2.3440    -1.2590    -1.0070 ca         1 LH4      -0.017250
     44 C25          1.0250    -1.6530    -0.8580 ca         1 LH4      -0.122750
     45 S2           4.8740    -0.7780    -0.0780 sy         1 LH4       1.149100
     46 O4           5.0380    -0.0110    -1.3020 o          1 LH4      -0.534250
     47 O5           5.3640    -0.2430     1.1820 o          1 LH4      -0.534250
     48 N3           5.6490    -2.2250    -0.3130 n3         1 LH4      -0.707000
     49 C33          5.3650    -2.9210    -1.5700 c6         1 LH4       0.148800
     50 C32          6.3940    -4.0220    -1.7520 c6         1 LH4       0.154600
     51 O6           6.3980    -4.9140    -0.6620 os         1 LH4      -0.442500
     52 C31          6.6880    -4.2390     0.5380 c6         1 LH4       0.154600
     53 C30          5.6790    -3.1420     0.8280 c6         1 LH4       0.148800
     54 H5           8.7520     6.5370     0.2850 hn         1 LH4       0.338500
     55 H4           6.0570     5.0910    -2.3400 hn         1 LH4       0.338500
     56 H            8.8800     3.9340     0.2410 h1         1 LH4       0.069700
     57 H34          7.2510     3.1830    -1.3110 h1         1 LH4       0.069700
     58 H11C         7.6900     3.5520     2.2000 h1         1 LH4       0.076700
     59 H12C         7.8090     5.3090     2.3320 h1         1 LH4       0.076700
     60 H2           5.9590     2.4850     0.5290 h1         1 LH4       0.083700
     61 H31C         4.0940     4.3590    -0.9910 hc         1 LH4       0.061200
     62 H32C         4.5360     2.7220    -1.4570 hc         1 LH4       0.061200
     63 H41C         3.5990     1.9020     0.7510 hc         1 LH4       0.042700
     64 H42C         2.9830     3.5120     1.0470 hc         1 LH4       0.042700
     65 H51C         1.6390     3.3650    -1.0780 hc         1 LH4       0.059200
     66 H52C         2.3060     1.7720    -1.3660 hc         1 LH4       0.059200
     67 H61C         1.3760     1.1240     0.9720 hc         1 LH4       0.060200
     68 H62C         0.4530     2.6030     0.9160 hc         1 LH4       0.060200
     69 HA          -0.9800     0.5500     1.2800 hn         1 LH4       0.313500
     70 H1          -2.8390     0.0650    -0.4040 hn         1 LH4       0.480000
     71 H12         -4.3860    -4.0610     0.8310 ha         1 LH4       0.119500
     72 H19         -4.9830    -2.7420    -1.7320 ha         1 LH4       0.127750
     73 H15         -4.3810    -0.1990     1.6650 ha         1 LH4       0.127750
     74 H18         -7.0820    -1.5830    -2.2380 ha         1 LH4       0.137750
     75 H16         -6.4610     0.9850     1.1600 ha         1 LH4       0.137750
     76 H231        -8.6720    -0.8480     1.8040 h1         1 LH4       0.064450
     77 H232        -9.3900     0.7720     1.7550 h1         1 LH4       0.064450
     78 H201       -10.0380    -1.6550    -1.5960 h1         1 LH4       0.064450
     79 H202        -9.0700    -2.3610    -0.2900 h1         1 LH4       0.064450
     80 H221       -10.7440    -0.8280     3.0850 h1         1 LH4       0.058950
     81 H222       -11.6370    -0.1130     1.7320 h1         1 LH4       0.058950
     82 H211       -11.3630    -3.1750    -0.1470 h1         1 LH4       0.058950
     83 H212       -12.0110    -1.5270    -0.2140 h1         1 LH4       0.058950
     84 H11         -2.3780    -5.3570     1.4810 ha         1 LH4       0.124000
     85 H10         -0.1500    -4.3020     1.2960 ha         1 LH4       0.119500
     86 H29          0.9510    -2.0660     2.5000 ha         1 LH4       0.127750
     87 H25          0.3920    -1.7240    -1.7320 ha         1 LH4       0.127750
     88 H28          3.2920    -1.3850     2.2570 ha         1 LH4       0.137750
     89 H26          2.7200    -1.0180    -1.9920 ha         1 LH4       0.137750
     90 H331         4.3560    -3.3530    -1.5650 h1         1 LH4       0.064450
     91 H332         5.4400    -2.2290    -2.4080 h1         1 LH4       0.064450
     92 H301         5.9930    -2.6150     1.7260 h1         1 LH4       0.064450
     93 H302         4.6890    -3.5810     1.0090 h1         1 LH4       0.064450
     94 H321         6.1540    -4.5940    -2.6480 h1         1 LH4       0.058950
     95 H322         7.3870    -3.5730    -1.8900 h1         1 LH4       0.058950
     96 H311         6.6600    -4.9710     1.3450 h1         1 LH4       0.058950
     97 H312         7.6960    -3.8040     0.5050 h1         1 LH4       0.058950
@<TRIPOS>BOND
     1     1     2 2   
     2     2     3 1   
     3     2     5 1   
     4     3     4 1   
     5     3    54 1   
     6     4     6 1   
     7     4     9 1   
     8     4    56 1   
     9     5     6 1   
    10     5    55 1   
    11     6     7 1   
    12     6    57 1   
    13     7     8 1   
    14     7    10 1   
    15     7    60 1   
    16     8     9 1   
    17     9    58 1   
    18     9    59 1   
    19    10    11 1   
    20    10    61 1   
    21    10    62 1   
    22    11    12 1   
    23    11    63 1   
    24    11    64 1   
    25    12    13 1   
    26    12    65 1   
    27    12    66 1   
    28    13    14 1   
    29    13    67 1   
    30    13    68 1   
    31    14    15 2   
    32    14    16 1   
    33    16    17 1   
    34    16    69 1   
    35    17    18 1   
    36    17    70 1   
    37    18    19 ar  
    38    18    38 ar  
    39    19    20 1   
    40    19    35 ar  
    41    20    21 ar  
    42    20    34 ar  
    43    21    22 ar  
    44    21    72 1   
    45    22    23 ar  
    46    22    74 1   
    47    23    24 1   
    48    23    33 ar  
    49    24    25 2   
    50    24    26 1   
    51    24    32 2   
    52    26    27 1   
    53    26    31 1   
    54    27    28 1   
    55    27    76 1   
    56    27    77 1   
    57    28    29 1   
    58    28    80 1   
    59    28    81 1   
    60    29    30 1   
    61    30    31 1   
    62    30    82 1   
    63    30    83 1   
    64    31    78 1   
    65    31    79 1   
    66    33    34 ar  
    67    33    75 1   
    68    34    73 1   
    69    35    36 ar  
    70    35    71 1   
    71    36    37 ar  
    72    36    84 1   
    73    37    38 ar  
    74    37    85 1   
    75    38    39 1   
    76    39    40 ar  
    77    39    44 ar  
    78    40    41 ar  
    79    40    86 1   
    80    41    42 ar  
    81    41    88 1   
    82    42    43 ar  
    83    42    45 1   
    84    43    44 ar  
    85    43    89 1   
    86    44    87 1   
    87    45    46 2   
    88    45    47 2   
    89    45    48 1   
    90    48    49 1   
    91    48    53 1   
    92    49    50 1   
    93    49    90 1   
    94    49    91 1   
    95    50    51 1   
    96    50    94 1   
    97    50    95 1   
    98    51    52 1   
    99    52    53 1   
   100    52    96 1   
   101    52    97 1   
   102    53    92 1   
   103    53    93 1   
@<TRIPOS>SUBSTRUCTURE
     1 LH4         1 TEMP              0 ****  ****    0 ROOT
