@<TRIPOS>MOLECULE
LH4
   97   103     1     0     0
SMALL
No Charge or Current Charge


@<TRIPOS>ATOM
      1 O7           8.7120     2.4390    -0.2580 o          1 LH4      -0.583000
      2 C35          8.0260     2.9560     0.6030 c          1 LH4       0.612000
      3 N5           8.3040     4.1250     1.2250 ns         1 LH4      -0.522900
      4 C            7.2850     4.5090     2.2060 c5         1 LH4       0.100700
      5 N4           6.8820     2.4430     1.1040 ns         1 LH4      -0.511900
      6 C34          6.2560     3.3080     2.1110 c5         1 LH4       0.098700
      7 C2           4.9130     3.8570     1.4950 c5         1 LH4       0.077300
      8 S            5.4070     5.2110     0.3320 ss         1 LH4      -0.420000
      9 C1           6.6120     5.7900     1.6120 c5         1 LH4       0.030600
     10 C3           4.0210     2.8090     0.7820 c3         1 LH4      -0.062400
     11 C4           2.5950     3.2890     0.4280 c3         1 LH4      -0.076400
     12 C5           1.7770     2.1870    -0.2770 c3         1 LH4      -0.065400
     13 C6           0.3100     2.5730    -0.5590 c3         1 LH4      -0.159400
     14 C7          -0.4210     1.4100    -1.2400 c          1 LH4       0.618100
     15 O           -0.3500     1.2070    -2.4460 o          1 LH4      -0.562100
     16 N           -1.1830     0.6200    -0.3790 ns         1 LH4      -0.387300
     17 N1          -1.9570    -0.5310    -0.7940 nu         1 LH4      -0.676200
     18 C8          -1.9550    -1.7020    -0.0090 ca         1 LH4       0.312000
     19 C13         -3.2160    -2.2790     0.3240 cp         1 LH4      -0.106000
     20 C14         -4.5130    -1.6830    -0.1210 cp         1 LH4       0.021500
     21 C19         -5.4270    -2.4460    -0.8840 ca         1 LH4      -0.122750
     22 C18         -6.6540    -1.9040    -1.3010 ca         1 LH4      -0.017250
     23 C17         -6.9970    -0.5830    -0.9500 ca         1 LH4      -0.308000
     24 S1          -8.5750     0.1150    -1.4770 sy         1 LH4       1.149100
     25 O2          -9.0520    -0.5920    -2.6710 o          1 LH4      -0.534250
     26 N2          -9.6340    -0.3250    -0.2110 n3         1 LH4      -0.707000
     27 C23         -9.2900     0.2430     1.1290 c6         1 LH4       0.148800
     28 C22        -10.3800    -0.0870     2.1880 c6         1 LH4       0.154600
     29 O3         -10.5950    -1.5170     2.2550 os         1 LH4      -0.442500
     30 C21        -11.0000    -2.0790     0.9840 c6         1 LH4       0.154600
     31 C20         -9.9240    -1.7880    -0.1020 c6         1 LH4       0.148800
     32 O1          -8.5050     1.5810    -1.4550 o          1 LH4      -0.534250
     33 C16         -6.1000     0.1900    -0.1850 ca         1 LH4      -0.017250
     34 C15         -4.8740    -0.3590     0.2270 ca         1 LH4      -0.122750
     35 C12         -3.2440    -3.4520     1.1100 ca         1 LH4      -0.058000
     36 C11         -2.0610    -4.0380     1.5740 ca         1 LH4      -0.142000
     37 C10         -0.8240    -3.4720     1.2430 ca         1 LH4      -0.058000
     38 C9          -0.7370    -2.3080     0.4400 cp         1 LH4      -0.106000
     39 C24          0.6300    -1.8210     0.0670 cp         1 LH4       0.021500
     40 C29          1.6220    -1.6190     1.0580 ca         1 LH4      -0.122750
     41 C28          2.9260    -1.2220     0.7160 ca         1 LH4      -0.017250
     42 C27          3.2690    -1.0230    -0.6370 ca         1 LH4      -0.308000
     43 C26          2.2980    -1.2270    -1.6380 ca         1 LH4      -0.017250
     44 C25          0.9980    -1.6260    -1.2850 ca         1 LH4      -0.122750
     45 S2           4.9390    -0.5230    -1.0960 sy         1 LH4       1.149100
     46 O4           4.8360     0.3040    -2.3020 o          1 LH4      -0.534250
     47 O5           5.6680    -0.0770     0.0970 o          1 LH4      -0.534250
     48 N3           5.6500    -1.9890    -1.5960 n3         1 LH4      -0.707000
     49 C33          5.4190    -3.1640    -0.7010 c6         1 LH4       0.148800
     50 C32          6.0300    -4.4670    -1.2900 c6         1 LH4       0.154600
     51 O6           7.4320    -4.2750    -1.5970 os         1 LH4      -0.442500
     52 C31          7.6520    -3.2000    -2.5390 c6         1 LH4       0.154600
     53 C30          7.0880    -1.8660    -1.9740 c6         1 LH4       0.148800
     54 H5           9.1340     4.6430     0.9660 hn         1 LH4       0.338500
     55 H4           6.5290     1.5590     0.7500 hn         1 LH4       0.338500
     56 H            7.6950     4.6600     3.2140 h1         1 LH4       0.069700
     57 H34          6.1050     2.7950     3.0700 h1         1 LH4       0.069700
     58 H11C         6.0590     6.3270     2.3950 h1         1 LH4       0.076700
     59 H12C         7.3400     6.4900     1.1800 h1         1 LH4       0.076700
     60 H2           4.3190     4.3080     2.3020 h1         1 LH4       0.083700
     61 H31C         4.5110     2.4800    -0.1420 hc         1 LH4       0.061200
     62 H32C         3.9340     1.9220     1.4230 hc         1 LH4       0.061200
     63 H41C         2.0800     3.5970     1.3460 hc         1 LH4       0.042700
     64 H42C         2.6510     4.1700    -0.2230 hc         1 LH4       0.042700
     65 H51C         2.2700     1.9160    -1.2200 hc         1 LH4       0.059200
     66 H52C         1.7810     1.2890     0.3530 hc         1 LH4       0.059200
     67 H61C        -0.1680     2.8040     0.4010 hc         1 LH4       0.060200
     68 H62C         0.2930     3.4490    -1.2180 hc         1 LH4       0.060200
     69 HA          -1.2380     0.9110     0.5960 hn         1 LH4       0.313500
     70 H1          -2.8860    -0.2630    -1.1390 hn         1 LH4       0.480000
     71 H12         -4.2000    -3.9010     1.3740 ha         1 LH4       0.119500
     72 H19         -5.1750    -3.4670    -1.1590 ha         1 LH4       0.127750
     73 H15         -4.2000     0.2420     0.8330 ha         1 LH4       0.127750
     74 H18         -7.3340    -2.5150    -1.8930 ha         1 LH4       0.137750
     75 H16         -6.3490     1.2120     0.0990 ha         1 LH4       0.137750
     76 H231        -8.3290    -0.1560     1.4850 h1         1 LH4       0.064450
     77 H232        -9.1850     1.3370     1.0730 h1         1 LH4       0.064450
     78 H201       -10.2890    -2.1870    -1.0590 h1         1 LH4       0.064450
     79 H202        -9.0120    -2.3470     0.1550 h1         1 LH4       0.064450
     80 H221       -10.0660     0.2770     3.1760 h1         1 LH4       0.058950
     81 H222       -11.3240     0.4110     1.9220 h1         1 LH4       0.058950
     82 H211       -11.1350    -3.1640     1.0960 h1         1 LH4       0.058950
     83 H212       -11.9630    -1.6430     0.6830 h1         1 LH4       0.058950
     84 H11         -2.1020    -4.9380     2.1840 ha         1 LH4       0.124000
     85 H10          0.0870    -3.9550     1.5900 ha         1 LH4       0.119500
     86 H29          1.3730    -1.7740     2.1050 ha         1 LH4       0.127750
     87 H25          0.2630    -1.7920    -2.0690 ha         1 LH4       0.127750
     88 H28          3.6640    -1.0750     1.5030 ha         1 LH4       0.137750
     89 H26          2.5490    -1.0860    -2.6880 ha         1 LH4       0.137750
     90 H331         5.8600    -2.9840     0.2910 h1         1 LH4       0.064450
     91 H332         4.3450    -3.3420    -0.5490 h1         1 LH4       0.064450
     92 H301         7.2220    -1.0830    -2.7340 h1         1 LH4       0.064450
     93 H302         7.6910    -1.5730    -1.1020 h1         1 LH4       0.064450
     94 H321         5.9280    -5.2890    -0.5680 h1         1 LH4       0.058950
     95 H322         5.4940    -4.7490    -2.2080 h1         1 LH4       0.058950
     96 H311         8.7300    -3.1010    -2.7280 h1         1 LH4       0.058950
     97 H312         7.1580    -3.4420    -3.4910 h1         1 LH4       0.058950
@<TRIPOS>BOND
     1     1     2 2   
     2     2     3 1   
     3     2     5 1   
     4     3     4 1   
     5     3    54 1   
     6     4     6 1   
     7     4     9 1   
     8     4    56 1   
     9     5     6 1   
    10     5    55 1   
    11     6     7 1   
    12     6    57 1   
    13     7     8 1   
    14     7    10 1   
    15     7    60 1   
    16     8     9 1   
    17     9    58 1   
    18     9    59 1   
    19    10    11 1   
    20    10    61 1   
    21    10    62 1   
    22    11    12 1   
    23    11    63 1   
    24    11    64 1   
    25    12    13 1   
    26    12    65 1   
    27    12    66 1   
    28    13    14 1   
    29    13    67 1   
    30    13    68 1   
    31    14    15 2   
    32    14    16 1   
    33    16    17 1   
    34    16    69 1   
    35    17    18 1   
    36    17    70 1   
    37    18    19 ar  
    38    18    38 ar  
    39    19    20 1   
    40    19    35 ar  
    41    20    21 ar  
    42    20    34 ar  
    43    21    22 ar  
    44    21    72 1   
    45    22    23 ar  
    46    22    74 1   
    47    23    24 1   
    48    23    33 ar  
    49    24    25 2   
    50    24    26 1   
    51    24    32 2   
    52    26    27 1   
    53    26    31 1   
    54    27    28 1   
    55    27    76 1   
    56    27    77 1   
    57    28    29 1   
    58    28    80 1   
    59    28    81 1   
    60    29    30 1   
    61    30    31 1   
    62    30    82 1   
    63    30    83 1   
    64    31    78 1   
    65    31    79 1   
    66    33    34 ar  
    67    33    75 1   
    68    34    73 1   
    69    35    36 ar  
    70    35    71 1   
    71    36    37 ar  
    72    36    84 1   
    73    37    38 ar  
    74    37    85 1   
    75    38    39 1   
    76    39    40 ar  
    77    39    44 ar  
    78    40    41 ar  
    79    40    86 1   
    80    41    42 ar  
    81    41    88 1   
    82    42    43 ar  
    83    42    45 1   
    84    43    44 ar  
    85    43    89 1   
    86    44    87 1   
    87    45    46 2   
    88    45    47 2   
    89    45    48 1   
    90    48    49 1   
    91    48    53 1   
    92    49    50 1   
    93    49    90 1   
    94    49    91 1   
    95    50    51 1   
    96    50    94 1   
    97    50    95 1   
    98    51    52 1   
    99    52    53 1   
   100    52    96 1   
   101    52    97 1   
   102    53    92 1   
   103    53    93 1   
@<TRIPOS>SUBSTRUCTURE
     1 LH4         1 TEMP              0 ****  ****    0 ROOT
