@<TRIPOS>MOLECULE
LH7
   42    44     1     0     0
SMALL
No Charge or Current Charge


@<TRIPOS>ATOM
      1 N1          -1.1790     0.9940    -0.0370 nc         1 LH7      -0.521800
      2 N3           2.4800    -1.0320     0.0140 ns         1 LH7      -0.503900
      3 C4           0.0490     0.5200    -0.0310 cd         1 LH7       0.273900
      4 C5          -3.4280    -0.0470     0.0550 c5         1 LH7       0.116300
      5 C6          -4.0340     0.0040     1.4920 c5         1 LH7      -0.083400
      6 C7          -5.5750     0.0400     1.2430 c5         1 LH7      -0.291400
      7 C8          -4.0270     1.2420    -0.5930 c5         1 LH7      -0.304400
      8 C10          3.8080    -1.6370     0.0210 c3         1 LH7       0.151300
      9 C13          6.4060     0.9850     1.0530 ca         1 LH7      -0.154000
     10 C15          6.3610     0.8570    -1.3770 ca         1 LH7      -0.154000
     11 C11          4.8880    -0.5700    -0.0550 ca         1 LH7      -0.128300
     12 C12          5.4110    -0.0060     1.1250 ca         1 LH7      -0.071500
     13 C14          6.8780     1.4130    -0.1970 ca         1 LH7       0.178000
     14 C16          5.3650    -0.1340    -1.3080 ca         1 LH7      -0.071500
     15 C2          -1.2010    -1.3280     0.1050 cc         1 LH7      -0.053300
     16 C3           0.0990    -0.8860     0.0500 cd         1 LH7      -0.282600
     17 C9           1.3070    -1.7430     0.0740 c          1 LH7       0.650700
     18 F1           7.8340     2.3650    -0.2650 f          1 LH7      -0.177000
     19 N2          -1.9540    -0.1490     0.0360 na         1 LH7       0.127800
     20 O2          -6.5640     0.5140    -1.2530 o          1 LH7      -0.504000
     21 O3           1.2920    -2.9630     0.1390 o          1 LH7      -0.612100
     22 S1          -5.8230     1.1950    -0.1850 s6         1 LH7       1.056000
     23 H1           2.4130    -0.0260    -0.0380 hn         1 LH7       0.317500
     24 H2           0.8760     1.2170    -0.0880 h4         1 LH7       0.043100
     25 H3          -3.8240    -0.9230    -0.4770 h1         1 LH7       0.072700
     26 H4          -3.7420    -0.8670     2.0910 hc         1 LH7       0.085700
     27 H5          -3.6860     0.8900     2.0390 hc         1 LH7       0.085700
     28 H6          -5.9770    -0.9290     0.9230 h1         1 LH7       0.112700
     29 H7          -6.1550     0.4210     2.0910 h1         1 LH7       0.112700
     30 H8          -3.6350     2.1650    -0.1520 h1         1 LH7       0.126700
     31 H9          -3.9300     1.2770    -1.6830 h1         1 LH7       0.126700
     32 H10          3.9280    -2.2270     0.9400 h1         1 LH7       0.059700
     33 H11          3.8950    -2.3200    -0.8350 h1         1 LH7       0.059700
     34 H12          6.8110     1.4210     1.9630 ha         1 LH7       0.134000
     35 H13          6.7310     1.1950    -2.3420 ha         1 LH7       0.134000
     36 H14         -2.8260    -2.7420     0.4370 hc         1 LH7       0.064700
     37 H15         -1.5970    -3.2830    -0.7170 hc         1 LH7       0.064700
     38 H16         -1.2550    -3.2820     1.0220 hc         1 LH7       0.064700
     39 H17          5.0450    -0.3330     2.0970 ha         1 LH7       0.121500
     40 H18          4.9650    -0.5610    -2.2250 ha         1 LH7       0.121500
     41 C1          -1.7530    -2.7310     0.2170 c3         1 LH7      -0.045800
     42 O1          -6.2610     2.5120     0.2940 o          1 LH7      -0.504000
@<TRIPOS>BOND
     1     1     3 2   
     2     1    19 1   
     3     2     8 1   
     4     2    17 1   
     5     2    23 1   
     6     3    16 1   
     7     3    24 1   
     8     4     5 1   
     9     4     7 1   
    10     4    19 1   
    11     4    25 1   
    12     5     6 1   
    13     5    26 1   
    14     5    27 1   
    15     6    22 1   
    16     6    28 1   
    17     6    29 1   
    18     7    22 1   
    19     7    30 1   
    20     7    31 1   
    21     8    11 1   
    22     8    32 1   
    23     8    33 1   
    24     9    12 ar  
    25     9    13 ar  
    26     9    34 1   
    27    10    13 ar  
    28    10    14 ar  
    29    10    35 1   
    30    11    12 ar  
    31    11    14 ar  
    32    12    39 1   
    33    13    18 1   
    34    14    40 1   
    35    15    16 2   
    36    15    19 1   
    37    15    41 1   
    38    16    17 1   
    39    17    21 2   
    40    20    22 2   
    41    22    42 2   
    42    36    41 1   
    43    37    41 1   
    44    38    41 1   
@<TRIPOS>SUBSTRUCTURE
     1 LH7         1 TEMP              0 ****  ****    0 ROOT
