@<TRIPOS>MOLECULE
LH7
   42    44     1     0     0
SMALL
bcc


@<TRIPOS>ATOM
      1 N1          -1.3200     0.8420     0.5720 nc         1 LH7      -0.521800
      2 N3           2.4400    -0.9540    -0.1130 ns         1 LH7      -0.570900
      3 C4          -0.0550     0.4960     0.5630 cd         1 LH7       0.339200
      4 C5          -3.4360    -0.2440     0.2470 c5         1 LH7       0.087000
      5 C6          -4.0740     0.0470     1.6100 c5         1 LH7      -0.083400
      6 C7          -5.5540     0.2360     1.3260 c5         1 LH7      -0.180600
      7 C8          -3.9430     0.8080    -0.7450 c5         1 LH7      -0.193600
      8 C10          3.7480    -1.5630    -0.2380 c3         1 LH7       0.151300
      9 C13          5.9590     1.2840     0.9530 ca         1 LH7      -0.172000
     10 C15          6.6990     0.6090    -1.2480 ca         1 LH7      -0.172000
     11 C11          4.8240    -0.5130    -0.2050 ca         1 LH7      -0.128300
     12 C12          4.9680     0.3160     0.9060 ca         1 LH7      -0.089500
     13 C14          6.8100     1.4110    -0.1310 ca         1 LH7       0.142900
     14 C16          5.6950    -0.3520    -1.2760 ca         1 LH7      -0.089500
     15 C2          -1.1950    -1.3530     0.1350 cc         1 LH7      -0.002600
     16 C3           0.0980    -0.8800     0.2950 cd         1 LH7      -0.347900
     17 C9           1.3430    -1.6620     0.2240 c          1 LH7       0.717700
     18 F1           7.7730     2.3460    -0.0930 f          1 LH7      -0.141900
     19 N2          -1.9930    -0.2790     0.3000 na         1 LH7       0.106400
     20 O2          -6.6280     0.9160    -1.0580 o          1 LH7      -0.574800
     21 O3           1.3860    -2.8620     0.4690 o          1 LH7      -0.612100
     22 S1          -5.5750     1.3050    -0.1250 s6         1 LH7       0.976000
     23 H1           2.3220    -0.0300    -0.4980 hn         1 LH7       0.317500
     24 H2           0.7090     1.2300     0.7700 h4         1 LH7       0.043100
     25 H3          -3.7690    -1.2270    -0.0850 h1         1 LH7       0.072700
     26 H4          -3.9140    -0.7780     2.3030 hc         1 LH7       0.085700
     27 H5          -3.6430     0.9490     2.0480 hc         1 LH7       0.085700
     28 H6          -6.0370    -0.7040     1.0560 h1         1 LH7       0.112700
     29 H7          -6.1130     0.7210     2.1240 h1         1 LH7       0.112700
     30 H8          -3.3120     1.6950    -0.7480 h1         1 LH7       0.126700
     31 H9          -4.0480     0.4260    -1.7590 h1         1 LH7       0.126700
     32 H10          3.8830    -2.2650     0.5870 h1         1 LH7       0.059700
     33 H11          3.8200    -2.1450    -1.1610 h1         1 LH7       0.059700
     34 H12          6.0710     1.9250     1.8170 ha         1 LH7       0.152000
     35 H13          7.3750     0.7310    -2.0840 ha         1 LH7       0.152000
     36 H14         -2.3240    -3.1040     0.6310 hc         1 LH7       0.064700
     37 H15         -2.3410    -2.6900    -1.0810 hc         1 LH7       0.064700
     38 H16         -0.9000    -3.3960    -0.3560 hc         1 LH7       0.064700
     39 H17          4.3000     0.2070     1.7520 ha         1 LH7       0.139500
     40 H18          5.5960    -0.9840    -2.1500 ha         1 LH7       0.139500
     41 C1          -1.7190    -2.7060    -0.1860 c3         1 LH7      -0.045800
     42 O1          -5.5110     2.6980     0.3140 o          1 LH7      -0.574800
@<TRIPOS>BOND
     1     1     3 2   
     2     1    19 1   
     3     2     8 1   
     4     2    17 1   
     5     2    23 1   
     6     3    16 1   
     7     3    24 1   
     8     4     5 1   
     9     4     7 1   
    10     4    19 1   
    11     4    25 1   
    12     5     6 1   
    13     5    26 1   
    14     5    27 1   
    15     6    22 1   
    16     6    28 1   
    17     6    29 1   
    18     7    22 1   
    19     7    30 1   
    20     7    31 1   
    21     8    11 1   
    22     8    32 1   
    23     8    33 1   
    24     9    12 ar  
    25     9    13 ar  
    26     9    34 1   
    27    10    13 ar  
    28    10    14 ar  
    29    10    35 1   
    30    11    12 ar  
    31    11    14 ar  
    32    12    39 1   
    33    13    18 1   
    34    14    40 1   
    35    15    16 2   
    36    15    19 1   
    37    15    41 1   
    38    16    17 1   
    39    17    21 2   
    40    20    22 2   
    41    22    42 2   
    42    36    41 1   
    43    37    41 1   
    44    38    41 1   
@<TRIPOS>SUBSTRUCTURE
     1 LH7         1 TEMP              0 ****  ****    0 ROOT
