@<TRIPOS>MOLECULE
LH9
   62    61     1     0     0
SMALL
No Charge or Current Charge


@<TRIPOS>ATOM
      1 C1          -7.1460     8.4690    40.6950 c3         1 LH9      -0.089100
      2 C10         -8.0430     6.1970    32.5020 c3         1 LH9      -0.039200
      3 C11         -8.3920     5.0940    31.4770 c3         1 LH9      -0.069400
      4 C12         -9.5620     5.4560    30.5320 c3         1 LH9      -0.075400
      5 C13         -9.8500     4.3610    29.4830 c3         1 LH9      -0.075400
      6 C14        -11.0200     4.7200    28.5410 c3         1 LH9      -0.076400
      7 C15        -11.3090     3.6240    27.4910 c3         1 LH9      -0.068400
      8 C16        -12.4810     3.9840    26.5480 c3         1 LH9      -0.137400
      9 C17        -12.7260     2.8780    25.5190 c          1 LH9       0.590100
     10 C18        -12.1390     2.1230    23.3020 c3         1 LH9       0.125600
     11 C19        -11.2700     2.5690    22.0920 c3         1 LH9       0.172300
     12 C2          -8.3510     8.7330    39.7720 c3         1 LH9      -0.076400
     13 C20         -9.7560     2.6420    22.4570 c3         1 LH9       0.169600
     14 C3          -7.9680     9.5070    38.4870 c3         1 LH9      -0.074400
     15 C4          -9.1510     9.8020    37.5280 c3         1 LH9      -0.071400
     16 C5          -9.4060     8.7460    36.4220 c3         1 LH9      -0.074400
     17 C6          -9.7960     7.3350    36.9220 c3         1 LH9      -0.069400
     18 C7         -10.2380     6.3790    35.7920 c3         1 LH9      -0.042200
     19 C8          -9.1350     6.1010    34.7910 c2         1 LH9      -0.217200
     20 C9          -9.1550     6.4590    33.4980 c2         1 LH9      -0.221200
     21 O1         -13.4170     1.8920    25.7340 o          1 LH9      -0.491000
     22 O2         -12.0310     3.1000    24.3590 os         1 LH9      -0.440100
     23 O3         -11.7330     3.8380    21.5750 oh         1 LH9      -0.634000
     24 O4          -8.9380     2.8510    21.2890 oh         1 LH9      -0.653000
     25 H1          -7.4640     7.9270    41.5930 hc         1 LH9       0.030367
     26 H3          -6.3890     7.8650    40.1800 hc         1 LH9       0.030367
     27 H2          -6.6830     9.4120    41.0090 hc         1 LH9       0.030367
     28 H19         -7.1310     5.8950    33.0320 hc         1 LH9       0.043200
     29 H18         -7.7910     7.1220    31.9690 hc         1 LH9       0.043200
     30 H20         -8.6310     4.1680    32.0150 hc         1 LH9       0.039200
     31 H21         -7.5000     4.8860    30.8730 hc         1 LH9       0.039200
     32 H23         -9.3310     6.3970    30.0170 hc         1 LH9       0.038700
     33 H22        -10.4690     5.6280    31.1240 hc         1 LH9       0.038700
     34 H24        -10.0790     3.4200    29.9990 hc         1 LH9       0.039700
     35 H25         -8.9470     4.1870    28.8850 hc         1 LH9       0.039700
     36 H27        -10.7910     5.6610    28.0250 hc         1 LH9       0.037700
     37 H26        -11.9240     4.8940    29.1380 hc         1 LH9       0.037700
     38 H29        -11.5370     2.6820    28.0060 hc         1 LH9       0.053700
     39 H28        -10.4050     3.4490    26.8930 hc         1 LH9       0.053700
     40 H30        -12.2100     4.9070    26.0220 hc         1 LH9       0.072200
     41 H31        -13.3900     4.1300    27.1430 hc         1 LH9       0.072200
     42 H32        -13.1830     2.0140    22.9790 h1         1 LH9       0.054200
     43 H33        -11.7920     1.1400    23.6480 h1         1 LH9       0.054200
     44 H34        -11.3820     1.7970    21.3180 h1         1 LH9       0.047700
     45 H5          -9.1020     9.3080    40.3280 hc         1 LH9       0.036700
     46 H4          -8.8140     7.7740    39.5190 hc         1 LH9       0.036700
     47 H36         -9.4660     1.7030    22.9490 h1         1 LH9       0.031700
     48 H35         -9.5990     3.4520    23.1830 h1         1 LH9       0.031700
     49 H7          -7.1820     8.9660    37.9460 hc         1 LH9       0.036700
     50 H6          -7.5280    10.4660    38.7900 hc         1 LH9       0.036700
     51 H8          -8.9480    10.7560    37.0270 hc         1 LH9       0.036700
     52 H9         -10.0700     9.9580    38.1080 hc         1 LH9       0.036700
     53 H11         -8.5120     8.6710    35.7910 hc         1 LH9       0.038200
     54 H10        -10.2090     9.1220    35.7750 hc         1 LH9       0.038200
     55 H13        -10.6130     7.4220    37.6490 hc         1 LH9       0.039700
     56 H12         -8.9450     6.8820    37.4430 hc         1 LH9       0.039700
     57 H15        -11.1160     6.8040    35.2890 hc         1 LH9       0.043200
     58 H14        -10.5710     5.4350    36.2400 hc         1 LH9       0.043200
     59 H39         -8.2780     5.5640    35.2040 ha         1 LH9       0.165000
     60 H17        -10.0090     7.0030    33.0900 ha         1 LH9       0.165000
     61 H37        -12.6910     3.7420    21.3840 ho         1 LH9       0.441000
     62 H38         -8.0130     2.9590    21.6040 ho         1 LH9       0.445000
@<TRIPOS>BOND
     1     1    12 1   
     2     1    25 1   
     3     1    26 1   
     4     1    27 1   
     5     2     3 1   
     6     2    20 1   
     7     2    28 1   
     8     2    29 1   
     9     3     4 1   
    10     3    30 1   
    11     3    31 1   
    12     4     5 1   
    13     4    32 1   
    14     4    33 1   
    15     5     6 1   
    16     5    34 1   
    17     5    35 1   
    18     6     7 1   
    19     6    36 1   
    20     6    37 1   
    21     7     8 1   
    22     7    38 1   
    23     7    39 1   
    24     8     9 1   
    25     8    40 1   
    26     8    41 1   
    27     9    21 2   
    28     9    22 1   
    29    10    11 1   
    30    10    22 1   
    31    10    42 1   
    32    10    43 1   
    33    11    13 1   
    34    11    23 1   
    35    11    44 1   
    36    12    14 1   
    37    12    45 1   
    38    12    46 1   
    39    13    24 1   
    40    13    47 1   
    41    13    48 1   
    42    14    15 1   
    43    14    49 1   
    44    14    50 1   
    45    15    16 1   
    46    15    51 1   
    47    15    52 1   
    48    16    17 1   
    49    16    53 1   
    50    16    54 1   
    51    17    18 1   
    52    17    55 1   
    53    17    56 1   
    54    18    19 1   
    55    18    57 1   
    56    18    58 1   
    57    19    20 2   
    58    19    59 1   
    59    20    60 1   
    60    23    61 1   
    61    24    62 1   
@<TRIPOS>SUBSTRUCTURE
     1 LH9         1 TEMP              0 ****  ****    0 ROOT
