@<TRIPOS>MOLECULE
LH9
   62    61     1     0     0
SMALL
abcg2


@<TRIPOS>ATOM
      1 C1          -7.7660     9.3810    40.5720 c3         1 LH9      -0.089100
      2 C10         -8.1860     4.8020    33.3640 c3         1 LH9      -0.039200
      3 C11         -8.7230     3.7720    32.3670 c3         1 LH9      -0.069400
      4 C12         -9.4020     4.3840    31.1460 c3         1 LH9      -0.075400
      5 C13         -9.7310     3.3580    30.0690 c3         1 LH9      -0.075400
      6 C14        -10.4220     3.9710    28.8580 c3         1 LH9      -0.076400
      7 C15        -10.6580     2.9680    27.7360 c3         1 LH9      -0.068400
      8 C16        -11.3150     3.6170    26.5270 c3         1 LH9      -0.137400
      9 C17        -11.5430     2.6660    25.3840 c          1 LH9       0.590100
     10 C18        -11.9650     2.5380    23.0600 c3         1 LH9       0.125600
     11 C19        -11.9500     3.4640    21.8570 c3         1 LH9       0.172300
     12 C2          -8.6090     9.6340    39.3300 c3         1 LH9      -0.076400
     13 C20        -10.6160     4.1710    21.7090 c3         1 LH9       0.169600
     14 C3          -7.7690     9.7060    38.0570 c3         1 LH9      -0.074400
     15 C4          -8.5700     9.9680    36.7760 c3         1 LH9      -0.071400
     16 C5          -9.0050     8.7200    36.0100 c3         1 LH9      -0.074400
     17 C6          -9.9170     7.7690    36.7750 c3         1 LH9      -0.069400
     18 C7         -10.5180     6.6760    35.8840 c3         1 LH9      -0.042200
     19 C8          -9.4860     5.7810    35.2730 c2         1 LH9      -0.217200
     20 C9          -9.2380     5.6780    33.9700 c2         1 LH9      -0.221200
     21 O1         -11.5800     1.4640    25.4790 o          1 LH9      -0.491000
     22 O2         -11.7220     3.3110    24.2370 os         1 LH9      -0.440100
     23 O3         -12.9640     4.4390    21.9110 oh         1 LH9      -0.634000
     24 O4         -10.5730     4.7950    20.4480 oh         1 LH9      -0.653000
     25 H1          -8.3770     9.3580    41.4760 hc         1 LH9       0.030367
     26 H3          -7.2420     8.4250    40.5050 hc         1 LH9       0.030367
     27 H2          -7.0110    10.1590    40.7030 hc         1 LH9       0.030367
     28 H19         -7.6410     4.2840    34.1580 hc         1 LH9       0.043200
     29 H18         -7.4510     5.4300    32.8460 hc         1 LH9       0.043200
     30 H20         -9.4180     3.0990    32.8780 hc         1 LH9       0.039200
     31 H21         -7.8850     3.1520    32.0330 hc         1 LH9       0.039200
     32 H23         -8.7500     5.1540    30.7190 hc         1 LH9       0.038700
     33 H22        -10.3220     4.8970    31.4460 hc         1 LH9       0.038700
     34 H24        -10.3620     2.5680    30.4910 hc         1 LH9       0.039700
     35 H25         -8.8060     2.8670    29.7470 hc         1 LH9       0.039700
     36 H27         -9.8160     4.8020    28.4800 hc         1 LH9       0.037700
     37 H26        -11.3780     4.4090    29.1670 hc         1 LH9       0.037700
     38 H29        -11.2790     2.1460    28.1020 hc         1 LH9       0.053700
     39 H28         -9.7020     2.5270    27.4400 hc         1 LH9       0.053700
     40 H30        -10.7240     4.4660    26.1750 hc         1 LH9       0.072200
     41 H31        -12.2910     4.0320    26.8050 hc         1 LH9       0.072200
     42 H32        -12.9320     2.0320    23.1370 h1         1 LH9       0.054200
     43 H33        -11.1980     1.7700    22.9380 h1         1 LH9       0.054200
     44 H34        -12.0770     2.8040    20.9850 h1         1 LH9       0.047700
     45 H5          -9.1570    10.5750    39.4430 hc         1 LH9       0.036700
     46 H4          -9.3680     8.8540    39.2400 hc         1 LH9       0.036700
     47 H36         -9.8190     3.4230    21.8170 h1         1 LH9       0.031700
     48 H35        -10.4880     4.8960    22.5220 h1         1 LH9       0.031700
     49 H7          -7.1880     8.7810    37.9490 hc         1 LH9       0.036700
     50 H6          -7.0300    10.5020    38.1900 hc         1 LH9       0.036700
     51 H8          -7.9680    10.5770    36.0960 hc         1 LH9       0.036700
     52 H9          -9.4480    10.5770    37.0180 hc         1 LH9       0.036700
     53 H11         -8.1130     8.1790    35.6800 hc         1 LH9       0.038200
     54 H10         -9.5160     9.0330    35.0930 hc         1 LH9       0.038200
     55 H13        -10.7360     8.3340    37.2300 hc         1 LH9       0.039700
     56 H12         -9.3700     7.3030    37.6000 hc         1 LH9       0.039700
     57 H15        -11.1160     7.1440    35.0960 hc         1 LH9       0.043200
     58 H14        -11.2080     6.0750    36.4860 hc         1 LH9       0.043200
     59 H39         -8.8910     5.1920    35.9700 ha         1 LH9       0.165000
     60 H17         -9.8290     6.2790    33.2820 ha         1 LH9       0.165000
     61 H37        -13.8170     3.9970    21.8600 ho         1 LH9       0.441000
     62 H38         -9.7530     5.2950    20.3920 ho         1 LH9       0.445000
@<TRIPOS>BOND
     1     1    12 1   
     2     1    25 1   
     3     1    26 1   
     4     1    27 1   
     5     2     3 1   
     6     2    20 1   
     7     2    28 1   
     8     2    29 1   
     9     3     4 1   
    10     3    30 1   
    11     3    31 1   
    12     4     5 1   
    13     4    32 1   
    14     4    33 1   
    15     5     6 1   
    16     5    34 1   
    17     5    35 1   
    18     6     7 1   
    19     6    36 1   
    20     6    37 1   
    21     7     8 1   
    22     7    38 1   
    23     7    39 1   
    24     8     9 1   
    25     8    40 1   
    26     8    41 1   
    27     9    21 2   
    28     9    22 1   
    29    10    11 1   
    30    10    22 1   
    31    10    42 1   
    32    10    43 1   
    33    11    13 1   
    34    11    23 1   
    35    11    44 1   
    36    12    14 1   
    37    12    45 1   
    38    12    46 1   
    39    13    24 1   
    40    13    47 1   
    41    13    48 1   
    42    14    15 1   
    43    14    49 1   
    44    14    50 1   
    45    15    16 1   
    46    15    51 1   
    47    15    52 1   
    48    16    17 1   
    49    16    53 1   
    50    16    54 1   
    51    17    18 1   
    52    17    55 1   
    53    17    56 1   
    54    18    19 1   
    55    18    57 1   
    56    18    58 1   
    57    19    20 2   
    58    19    59 1   
    59    20    60 1   
    60    23    61 1   
    61    24    62 1   
@<TRIPOS>SUBSTRUCTURE
     1 LH9         1 TEMP              0 ****  ****    0 ROOT
