@<TRIPOS>MOLECULE
LHB
   54    57     1     0     0
SMALL
abcg2


@<TRIPOS>ATOM
      1 C1          -4.7620    -2.5810    -0.5350 ca         1 LHB       0.454900
      2 C2          -3.8720    -1.6480     0.0280 ca         1 LHB      -0.104600
      3 C3          -3.8510    -0.3910    -0.5520 ca         1 LHB       0.148500
      4 N1          -4.5820     0.0150    -1.5880 nb         1 LHB      -0.216000
      5 C4          -5.3740    -0.9450    -2.0330 ca         1 LHB       0.187900
      6 N2          -5.5040    -2.1880    -1.5770 nb         1 LHB      -0.301000
      7 N3          -2.9350     0.3220     0.1680 na         1 LHB      -0.288300
      8 C5          -2.4520    -0.5350     1.1210 cc         1 LHB       0.396700
      9 N4          -2.9860    -1.7180     1.0730 nd         1 LHB      -0.551100
     10 C6          -2.5140     1.6760    -0.0840 c5         1 LHB       0.314300
     11 O1          -1.1590     1.6920    -0.4400 os         1 LHB      -0.446000
     12 C7          -0.4590     2.7290     0.2620 c5         1 LHB       0.162300
     13 C8          -1.5410     3.6200     0.8540 c5         1 LHB       0.114300
     14 C9          -2.6500     2.6010     1.1270 c5         1 LHB       0.084300
     15 O2          -3.9420     3.1300     1.1700 oh         1 LHB      -0.693000
     16 O3          -1.9420     4.5480    -0.1200 oh         1 LHB      -0.700000
     17 C10          0.4660     2.1250     1.3030 c3         1 LHB       0.146800
     18 N5           1.4180     1.2350     0.6760 n7         1 LHB      -0.864400
     19 C11          2.3710     0.6710     1.6180 c3         1 LHB       0.236000
     20 C12          3.2720    -0.3140     0.9380 cc         1 LHB      -0.388800
     21 N6          -4.8880    -3.8260    -0.0760 nv         1 LHB      -1.064900
     22 C13          2.9110    -1.6820     0.6960 cc         1 LHB       0.781500
     23 N7           3.6780    -2.5110     0.0190 nd         1 LHB      -0.765100
     24 C14          4.8590    -2.1130    -0.4970 c          1 LHB       0.712400
     25 N8           5.2560    -0.7850    -0.2730 n          1 LHB      -0.349000
     26 C15          4.4600     0.0620     0.4170 cd         1 LHB       0.038600
     27 N9           1.7390    -2.1510     1.1450 nv         1 LHB      -1.025200
     28 C16          6.5060    -0.3110    -0.8510 c3         1 LHB       0.322000
     29 O4           6.4250    -0.1020    -2.2190 os         1 LHB      -0.427000
     30 C17          5.6380     1.0100    -2.5880 c3         1 LHB       0.130900
     31 O5           5.5910    -2.8550    -1.1350 o          1 LHB      -0.525000
     32 H1          -6.0020    -0.6910    -2.8800 h5         1 LHB       0.048100
     33 H2          -1.7030    -0.2290     1.8380 h5         1 LHB       0.053800
     34 H3          -3.1410     2.0380    -0.9060 h2         1 LHB       0.128700
     35 H4           0.1470     3.2780    -0.4650 h1         1 LHB       0.111700
     36 H5          -1.2020     4.1130     1.7750 h1         1 LHB       0.054700
     37 H6          -2.4110     2.0570     2.0480 h1         1 LHB       0.048700
     38 H7          -4.1280     3.4270     2.0660 ho         1 LHB       0.516000
     39 H8          -2.8230     4.8640     0.1140 ho         1 LHB       0.524000
     40 H10          1.0150     2.9420     1.7810 h1         1 LHB       0.027200
     41 H9          -0.1170     1.6410     2.1060 h1         1 LHB       0.027200
     42 H11          0.9220     0.4880     0.2030 hn         1 LHB       0.437000
     43 H12          2.9750     1.4860     2.0240 h1         1 LHB       0.027700
     44 H13          1.8870     0.2100     2.4940 h1         1 LHB       0.027700
     45 H14         -4.3520    -4.1500     0.7090 hn         1 LHB       0.507500
     46 H15         -5.5490    -4.4570    -0.4950 hn         1 LHB       0.507500
     47 H16          4.8300     1.0730     0.5360 h4         1 LHB       0.197000
     48 H18          1.2130    -1.6550     1.8430 hn         1 LHB       0.493500
     49 H17          1.5530    -3.1370     1.0640 hn         1 LHB       0.493500
     50 H20          6.7720     0.6060    -0.3140 h2         1 LHB       0.067200
     51 H19          7.2780    -1.0560    -0.6790 h2         1 LHB       0.067200
     52 H22          4.5760     0.8680    -2.3620 h1         1 LHB       0.036700
     53 H23          5.9760     1.9270    -2.0940 h1         1 LHB       0.036700
     54 H21          5.7390     1.1390    -3.6640 h1         1 LHB       0.036700
@<TRIPOS>BOND
     1     1     2 ar  
     2     1     6 ar  
     3     1    21 1   
     4     2     3 ar  
     5     2     9 1   
     6     3     4 ar  
     7     3     7 1   
     8     4     5 ar  
     9     5     6 ar  
    10     5    32 1   
    11     7     8 1   
    12     7    10 1   
    13     8     9 2   
    14     8    33 1   
    15    10    11 1   
    16    10    14 1   
    17    10    34 1   
    18    11    12 1   
    19    12    13 1   
    20    12    17 1   
    21    12    35 1   
    22    13    14 1   
    23    13    16 1   
    24    13    36 1   
    25    14    15 1   
    26    14    37 1   
    27    15    38 1   
    28    16    39 1   
    29    17    18 1   
    30    17    40 1   
    31    17    41 1   
    32    18    19 1   
    33    18    42 1   
    34    19    20 1   
    35    19    43 1   
    36    19    44 1   
    37    20    22 1   
    38    20    26 2   
    39    21    45 1   
    40    21    46 1   
    41    22    23 2   
    42    22    27 1   
    43    23    24 1   
    44    24    25 1   
    45    24    31 2   
    46    25    26 1   
    47    25    28 1   
    48    26    47 1   
    49    27    48 1   
    50    27    49 1   
    51    28    29 1   
    52    28    50 1   
    53    28    51 1   
    54    29    30 1   
    55    30    52 1   
    56    30    53 1   
    57    30    54 1   
@<TRIPOS>SUBSTRUCTURE
     1 LHB         1 TEMP              0 ****  ****    0 ROOT
