@<TRIPOS>MOLECULE
LHB
   54    57     1     0     0
SMALL
No Charge or Current Charge


@<TRIPOS>ATOM
      1 C1          -1.3560    -2.5130    -0.2870 ca         1 LHB       0.454900
      2 C2          -1.9200    -1.3430     0.2610 ca         1 LHB      -0.104600
      3 C3          -1.6000    -0.1370    -0.3120 ca         1 LHB       0.148500
      4 N1          -0.7690    -0.0490    -1.3710 nb         1 LHB      -0.216000
      5 C4          -0.2700    -1.2230    -1.8290 ca         1 LHB       0.187900
      6 N2          -0.5250    -2.4590    -1.3380 nb         1 LHB      -0.301000
      7 N3          -2.2840     0.8060     0.4140 na         1 LHB      -0.288300
      8 C5          -3.0060     0.1200     1.3990 cc         1 LHB       0.396700
      9 N4          -2.7990    -1.2060     1.3380 nd         1 LHB      -0.551100
     10 C6          -2.3300     2.2610     0.1780 c5         1 LHB       0.314300
     11 O1          -1.0340     2.7350    -0.2590 os         1 LHB      -0.446000
     12 C7          -0.3760     3.3760     0.8620 c5         1 LHB       0.162300
     13 C8          -1.5310     4.1950     1.5080 c5         1 LHB       0.114300
     14 C9          -2.7220     3.1840     1.4100 c5         1 LHB       0.084300
     15 O2          -3.9640     3.9040     1.2340 oh         1 LHB      -0.693000
     16 O3          -1.8620     5.3750     0.7690 oh         1 LHB      -0.700000
     17 C10          0.2810     2.3120     1.7950 c3         1 LHB       0.146800
     18 N5           1.1090     1.3700     1.0190 n7         1 LHB      -0.864400
     19 C11          1.5070     0.1510     1.7180 c3         1 LHB       0.236000
     20 C12          2.2140    -0.7530     0.7460 cc         1 LHB      -0.388800
     21 N6          -1.6240    -3.7530     0.2020 nv         1 LHB      -1.064900
     22 C13          2.1930    -2.1700     0.9070 cc         1 LHB       0.781500
     23 N7           2.7540    -3.0270     0.1250 nd         1 LHB      -0.765100
     24 C14          3.4430    -2.5760    -0.9960 c          1 LHB       0.712400
     25 N8           3.5290    -1.1910    -1.2170 n          1 LHB      -0.349000
     26 C15          2.9320    -0.2940    -0.3400 cd         1 LHB       0.038600
     27 N9           1.6030    -2.7360     1.9470 nv         1 LHB      -1.025200
     28 C16          4.3030    -0.7090    -2.3770 c3         1 LHB       0.322000
     29 O4           3.4470    -0.5980    -3.5300 os         1 LHB      -0.427000
     30 C17          2.6090     0.5720    -3.5710 c3         1 LHB       0.130900
     31 O5           3.9590    -3.3990    -1.7330 o          1 LHB      -0.525000
     32 H1           0.4000    -1.1690    -2.6850 h5         1 LHB       0.048100
     33 H2          -3.6580     0.6220     2.1040 h5         1 LHB       0.053800
     34 H3          -3.0530     2.3990    -0.6370 h2         1 LHB       0.128700
     35 H4           0.4190     4.0320     0.4840 h1         1 LHB       0.111700
     36 H5          -1.3060     4.4510     2.5540 h1         1 LHB       0.054700
     37 H6          -2.7570     2.5990     2.3390 h1         1 LHB       0.048700
     38 H7          -4.7010     3.3250     1.5480 ho         1 LHB       0.516000
     39 H8          -2.8480     5.2850     0.6840 ho         1 LHB       0.524000
     40 H10          0.8890     2.8240     2.5530 h1         1 LHB       0.027200
     41 H9          -0.5090     1.7660     2.3270 h1         1 LHB       0.027200
     42 H11          0.5270     1.0760     0.2240 hn         1 LHB       0.437000
     43 H12          2.1760     0.3840     2.5580 h1         1 LHB       0.027700
     44 H13          0.6130    -0.3490     2.1160 h1         1 LHB       0.027700
     45 H14         -2.0550    -3.7800     1.1220 hn         1 LHB       0.507500
     46 H15         -0.9530    -4.4890     0.0040 hn         1 LHB       0.507500
     47 H16          3.0750     0.7540    -0.5930 h4         1 LHB       0.197000
     48 H18          1.5830    -2.1830     2.7900 hn         1 LHB       0.493500
     49 H17          1.8630    -3.7050     2.0660 hn         1 LHB       0.493500
     50 H20          4.7580     0.2540    -2.1170 h2         1 LHB       0.067200
     51 H19          5.1150    -1.4220    -2.5630 h2         1 LHB       0.067200
     52 H22          1.9130     0.5930    -2.7240 h1         1 LHB       0.036700
     53 H23          3.2150     1.4870    -3.5450 h1         1 LHB       0.036700
     54 H21          2.0160     0.5820    -4.4940 h1         1 LHB       0.036700
@<TRIPOS>BOND
     1     1     2 ar  
     2     1     6 ar  
     3     1    21 1   
     4     2     3 ar  
     5     2     9 1   
     6     3     4 ar  
     7     3     7 1   
     8     4     5 ar  
     9     5     6 ar  
    10     5    32 1   
    11     7     8 1   
    12     7    10 1   
    13     8     9 2   
    14     8    33 1   
    15    10    11 1   
    16    10    14 1   
    17    10    34 1   
    18    11    12 1   
    19    12    13 1   
    20    12    17 1   
    21    12    35 1   
    22    13    14 1   
    23    13    16 1   
    24    13    36 1   
    25    14    15 1   
    26    14    37 1   
    27    15    38 1   
    28    16    39 1   
    29    17    18 1   
    30    17    40 1   
    31    17    41 1   
    32    18    19 1   
    33    18    42 1   
    34    19    20 1   
    35    19    43 1   
    36    19    44 1   
    37    20    22 1   
    38    20    26 2   
    39    21    45 1   
    40    21    46 1   
    41    22    23 2   
    42    22    27 1   
    43    23    24 1   
    44    24    25 1   
    45    24    31 2   
    46    25    26 1   
    47    25    28 1   
    48    26    47 1   
    49    27    48 1   
    50    27    49 1   
    51    28    29 1   
    52    28    50 1   
    53    28    51 1   
    54    29    30 1   
    55    30    52 1   
    56    30    53 1   
    57    30    54 1   
@<TRIPOS>SUBSTRUCTURE
     1 LHB         1 TEMP              0 ****  ****    0 ROOT
