@<TRIPOS>MOLECULE
LHC
   26    26     1     0     0
SMALL
No Charge or Current Charge


@<TRIPOS>ATOM
      1 N           -9.9280   -18.2850    11.0200 n8         1 LHC      -1.001200
      2 CA         -10.8240   -17.7210    12.0940 c3         1 LHC       0.014500
      3 CB         -10.0500   -17.6530    13.4370 c3         1 LHC      -0.067400
      4 CG         -10.9300   -17.2480    14.6420 c3         1 LHC       0.092000
      5 N1         -10.1900   -17.2720    15.9270 n          1 LHC      -0.293000
      6 C6         -10.0200   -18.4700    16.6130 cc         1 LHC       0.034600
      7 C5          -9.3400   -18.4650    17.8080 cd         1 LHC      -0.527600
      8 C4          -8.8500   -17.2280    18.2630 cd         1 LHC       0.778500
      9 N4          -8.2010   -17.1570    19.4050 nv         1 LHC      -1.054200
     10 N3          -9.0000   -16.1070    17.6450 nc         1 LHC      -0.786100
     11 C2          -9.6700   -16.0650    16.4500 c          1 LHC       0.701400
     12 O2          -9.7970   -14.9970    15.8740 o          1 LHC      -0.525000
     13 C          -11.5280   -16.3390    11.7590 c          1 LHC       0.692000
     14 O          -10.8470   -15.4390    11.2850 o          1 LHC      -0.729500
     15 OXT        -12.7430   -16.2660    11.8770 o          1 LHC      -0.729500
     16 HN         -10.4730   -18.3980    10.1560 hn         1 LHC       0.385500
     17 HA         -11.6320   -18.4540    12.2300 h1         1 LHC       0.030700
     18 HB          -9.2230   -16.9370    13.3460 hc         1 LHC       0.037200
     19 HBA         -9.6010   -18.6320    13.6430 hc         1 LHC       0.037200
     20 HG         -11.3570   -16.2520    14.4720 h1         1 LHC       0.079200
     21 HGA        -11.7760   -17.9440    14.7130 h1         1 LHC       0.079200
     22 H6         -10.4590   -19.3320    16.1160 h4         1 LHC       0.198000
     23 H5          -9.1820   -19.3750    18.3740 ha         1 LHC       0.188000
     24 HN4         -8.4160   -17.8870    20.0710 hn         1 LHC       0.490000
     25 HN4A        -8.1340   -16.2210    19.7800 hn         1 LHC       0.490000
     26 HNA         -9.2410   -17.5650    10.7650 hn         1 LHC       0.385500
@<TRIPOS>BOND
     1     1     2 1   
     2     1    16 1   
     3     1    26 1   
     4     2     3 1   
     5     2    13 1   
     6     2    17 1   
     7     3     4 1   
     8     3    18 1   
     9     3    19 1   
    10     4     5 1   
    11     4    20 1   
    12     4    21 1   
    13     5     6 1   
    14     5    11 1   
    15     6     7 2   
    16     6    22 1   
    17     7     8 1   
    18     7    23 1   
    19     8     9 1   
    20     8    10 2   
    21     9    24 1   
    22     9    25 1   
    23    10    11 1   
    24    11    12 2   
    25    13    14 1   
    26    13    15 1   
@<TRIPOS>SUBSTRUCTURE
     1 LHC         1 TEMP              0 ****  ****    0 ROOT
