@<TRIPOS>MOLECULE
LHC
   26    26     1     0     0
SMALL
abcg2


@<TRIPOS>ATOM
      1 N           -9.7920   -18.2160    11.1640 n8         1 LHC      -1.001200
      2 CA         -10.7730   -17.7390    12.1320 c3         1 LHC       0.014500
      3 CB         -10.0590   -17.5290    13.4720 c3         1 LHC      -0.067400
      4 CG         -10.9950   -17.2290    14.6350 c3         1 LHC       0.092000
      5 N1         -10.2890   -17.2320    15.9140 n          1 LHC      -0.293000
      6 C6         -10.1620   -18.3860    16.6020 cc         1 LHC       0.034600
      7 C5          -9.4850   -18.4550    17.7670 cd         1 LHC      -0.527600
      8 C4          -8.9090   -17.2340    18.2310 cd         1 LHC       0.778500
      9 N4          -8.2370   -17.2160    19.3850 nv         1 LHC      -1.054200
     10 N3          -9.0150   -16.1070    17.5550 nc         1 LHC      -0.786100
     11 C2          -9.6800   -16.0570    16.3790 c          1 LHC       0.701400
     12 O2          -9.7730   -15.0320    15.7160 o          1 LHC      -0.525000
     13 C          -11.5160   -16.4430    11.7210 c          1 LHC       0.692000
     14 O          -10.8910   -15.6490    10.9890 o          1 LHC      -0.729500
     15 OXT        -12.6630   -16.2870    12.1890 o          1 LHC      -0.729500
     16 HN         -10.2820   -18.5100    10.3270 hn         1 LHC       0.385500
     17 HA         -11.5140   -18.5330    12.2730 h1         1 LHC       0.030700
     18 HB          -9.3260   -16.7230    13.3710 hc         1 LHC       0.037200
     19 HBA         -9.4970   -18.4400    13.6990 hc         1 LHC       0.037200
     20 HG         -11.4880   -16.2690    14.5200 h1         1 LHC       0.079200
     21 HGA        -11.7780   -17.9860    14.6930 h1         1 LHC       0.079200
     22 H6         -10.6410   -19.2540    16.1680 h4         1 LHC       0.198000
     23 H5          -9.3970   -19.3810    18.3140 ha         1 LHC       0.188000
     24 HN4         -8.1510   -18.0390    19.9550 hn         1 LHC       0.490000
     25 HN4A        -7.8490   -16.3550    19.7290 hn         1 LHC       0.490000
     26 HNA         -9.2500   -17.4110    10.8670 hn         1 LHC       0.385500
@<TRIPOS>BOND
     1     1     2 1   
     2     1    16 1   
     3     1    26 1   
     4     2     3 1   
     5     2    13 1   
     6     2    17 1   
     7     3     4 1   
     8     3    18 1   
     9     3    19 1   
    10     4     5 1   
    11     4    20 1   
    12     4    21 1   
    13     5     6 1   
    14     5    11 1   
    15     6     7 2   
    16     6    22 1   
    17     7     8 1   
    18     7    23 1   
    19     8     9 1   
    20     8    10 2   
    21     9    24 1   
    22     9    25 1   
    23    10    11 1   
    24    11    12 2   
    25    13    14 1   
    26    13    15 1   
@<TRIPOS>SUBSTRUCTURE
     1 LHC         1 TEMP              0 ****  ****    0 ROOT
