@<TRIPOS>MOLECULE
LHD
   58    61     1     0     0
SMALL
No Charge or Current Charge


@<TRIPOS>ATOM
      1 C1          50.9910    40.1540   125.9880 ca         1 LHD       0.446900
      2 C2          50.7570    39.0440   126.8240 ca         1 LHD      -0.104600
      3 C3          50.4140    39.2800   128.1310 ca         1 LHD       0.158500
      4 N1          50.2960    40.5260   128.6320 nb         1 LHD      -0.219000
      5 C4          50.5420    41.5330   127.7590 ca         1 LHD       0.192900
      6 N2          50.8870    41.4090   126.4540 nb         1 LHD      -0.280000
      7 N3          50.2510    38.0480   128.6960 na         1 LHD      -0.303300
      8 C5          50.5020    37.0970   127.7000 cc         1 LHD       0.391700
      9 N4          50.8210    37.6800   126.5300 nd         1 LHD      -0.532100
     10 C6          49.8580    37.7790   130.0820 c5         1 LHD       0.317300
     11 O1          51.0320    37.8640   130.9330 os         1 LHD      -0.444000
     12 C7          51.1460    36.6560   131.7160 c5         1 LHD       0.140300
     13 C8          49.6670    36.1580   131.8590 c5         1 LHD       0.095300
     14 C9          49.1630    36.4030   130.4110 c5         1 LHD       0.146300
     15 O2          47.7320    36.4490   130.3900 oh         1 LHD      -0.658000
     16 O3          48.9000    36.9320   132.8020 oh         1 LHD      -0.666000
     17 N5          53.2990    33.4570   130.9890 ny         1 LHD      -0.840000
     18 C10         53.5250    32.0850   131.5660 c3         1 LHD       0.199800
     19 C11         52.2470    31.3060   131.5630 cc         1 LHD      -0.495800
     20 N6          51.3380    40.0240   124.6790 nv         1 LHD      -1.047900
     21 C12         51.4750    31.1250   132.7410 cc         1 LHD       0.788500
     22 N7          50.3560    30.4960   132.8180 nd         1 LHD      -0.731100
     23 C13         49.8230    29.9150   131.6700 c          1 LHD       0.700400
     24 N8          50.5390    30.0300   130.4670 n          1 LHD      -0.317000
     25 C14         51.7390    30.7290   130.4200 cd         1 LHD       0.074600
     26 N9          51.8770    31.6200   133.8950 nv         1 LHD      -1.042200
     27 C15         49.9770    29.4080   129.2520 c3         1 LHD       0.310000
     28 O4          50.2550    27.9930   129.2470 os         1 LHD      -0.414000
     29 C16         51.6360    27.6270   129.0730 c3         1 LHD       0.126900
     30 O5          48.7540    29.3330   131.7500 o          1 LHD      -0.458000
     31 C17         52.1220    35.6870   130.9960 c3         1 LHD      -0.125400
     32 C18         52.3200    34.3550   131.7340 c3         1 LHD       0.095600
     33 H1          50.4530    42.5460   128.1470 h5         1 LHD       0.058100
     34 H2          50.4480    36.0300   127.8770 h5         1 LHD       0.044800
     35 H3          49.1720    38.5900   130.3590 h2         1 LHD       0.144700
     36 H4          51.5780    36.9080   132.6940 h1         1 LHD       0.079700
     37 H5          49.6210    35.0920   132.1220 h1         1 LHD       0.040700
     38 H6          49.5170    35.6040   129.7490 h1         1 LHD       0.035700
     39 H7          47.4940    36.6920   131.3200 ho         1 LHD       0.519000
     40 H8          49.2800    36.7760   133.6990 ho         1 LHD       0.506000
     41 H26         52.9950    33.3510   130.0010 hn         1 LHD       0.498000
     42 H9          54.2190    33.9390   130.8980 hn         1 LHD       0.498000
     43 H10         54.2810    31.5670   130.9670 hx         1 LHD       0.095700
     44 H11         53.9260    32.1950   132.5780 hx         1 LHD       0.095700
     45 H12         51.7680    40.8210   124.2150 hn         1 LHD       0.506000
     46 H13         51.6290    39.1010   124.3660 hn         1 LHD       0.506000
     47 H14         52.2050    30.7670   129.4370 h4         1 LHD       0.198000
     48 H16         51.3080    31.2810   134.6580 hn         1 LHD       0.509500
     49 H15         52.8690    31.5680   134.0640 hn         1 LHD       0.509500
     50 H18         50.4050    29.9040   128.3730 h2         1 LHD       0.083200
     51 H17         48.8970    29.5940   129.2500 h2         1 LHD       0.083200
     52 H20         51.7360    26.5350   129.0190 h1         1 LHD       0.043700
     53 H19         52.0410    28.0510   128.1460 h1         1 LHD       0.043700
     54 H21         52.2480    27.9780   129.9150 h1         1 LHD       0.043700
     55 H22         51.7870    35.4790   129.9740 hc         1 LHD       0.076200
     56 H23         53.0980    36.1790   130.9020 hc         1 LHD       0.076200
     57 H25         52.7000    34.5400   132.7440 hx         1 LHD       0.100700
     58 H24         51.3630    33.8320   131.8190 hx         1 LHD       0.100700
@<TRIPOS>BOND
     1     1     2 ar  
     2     1     6 ar  
     3     1    20 1   
     4     2     3 ar  
     5     2     9 1   
     6     3     4 ar  
     7     3     7 1   
     8     4     5 ar  
     9     5     6 ar  
    10     5    33 1   
    11     7     8 1   
    12     7    10 1   
    13     8     9 2   
    14     8    34 1   
    15    10    11 1   
    16    10    14 1   
    17    10    35 1   
    18    11    12 1   
    19    12    13 1   
    20    12    31 1   
    21    12    36 1   
    22    13    14 1   
    23    13    16 1   
    24    13    37 1   
    25    14    15 1   
    26    14    38 1   
    27    15    39 1   
    28    16    40 1   
    29    17    18 1   
    30    17    32 1   
    31    17    41 1   
    32    17    42 1   
    33    18    19 1   
    34    18    43 1   
    35    18    44 1   
    36    19    21 1   
    37    19    25 2   
    38    20    45 1   
    39    20    46 1   
    40    21    22 2   
    41    21    26 1   
    42    22    23 1   
    43    23    24 1   
    44    23    30 2   
    45    24    25 1   
    46    24    27 1   
    47    25    47 1   
    48    26    48 1   
    49    26    49 1   
    50    27    28 1   
    51    27    50 1   
    52    27    51 1   
    53    28    29 1   
    54    29    52 1   
    55    29    53 1   
    56    29    54 1   
    57    31    32 1   
    58    31    55 1   
    59    31    56 1   
    60    32    57 1   
    61    32    58 1   
@<TRIPOS>SUBSTRUCTURE
     1 LHD         1 TEMP              0 ****  ****    0 ROOT
