@<TRIPOS>MOLECULE
LHD
   58    61     1     0     0
SMALL
abcg2


@<TRIPOS>ATOM
      1 C1          50.4280    41.0460   126.1290 ca         1 LHD       0.446900
      2 C2          50.6320    39.8390   126.8240 ca         1 LHD      -0.104600
      3 C3          50.3370    39.8440   128.1860 ca         1 LHD       0.158500
      4 N1          49.8860    40.8850   128.8910 nb         1 LHD      -0.219000
      5 C4          49.7390    41.9720   128.1330 ca         1 LHD       0.192900
      6 N2          49.9760    42.1070   126.8250 nb         1 LHD      -0.280000
      7 N3          50.6050    38.5640   128.6220 na         1 LHD      -0.303300
      8 C5          51.0540    37.8670   127.5200 cc         1 LHD       0.391700
      9 N4          51.0880    38.5910   126.4300 nd         1 LHD      -0.532100
     10 C6          50.4800    38.0780   129.9760 c5         1 LHD       0.317300
     11 O1          51.7480    37.6560   130.4500 os         1 LHD      -0.444000
     12 C7          51.6160    36.4520   131.2440 c5         1 LHD       0.140300
     13 C8          50.1050    36.2230   131.4050 c5         1 LHD       0.095300
     14 C9          49.5640    36.8660   130.1260 c5         1 LHD       0.146300
     15 O2          48.2230    37.2910   130.1440 oh         1 LHD      -0.658000
     16 O3          49.5790    36.9280   132.5200 oh         1 LHD      -0.666000
     17 N5          53.2400    33.0030   130.8050 ny         1 LHD      -0.840000
     18 C10         53.3310    31.7140   131.6030 c3         1 LHD       0.199800
     19 C11         52.0200    31.0000   131.6690 cc         1 LHD      -0.495800
     20 N6          50.6400    41.1710   124.8060 nv         1 LHD      -1.047900
     21 C12         51.0550    31.1420   132.7290 cc         1 LHD       0.788500
     22 N7          49.8700    30.5450   132.6850 nd         1 LHD      -0.731100
     23 C13         49.5180    29.7410   131.6550 c          1 LHD       0.700400
     24 N8          50.4810    29.5130   130.6370 n          1 LHD      -0.317000
     25 C14         51.6710    30.1460   130.6700 cd         1 LHD       0.074600
     26 N9          51.3120    31.8960   133.8080 nv         1 LHD      -1.042200
     27 C15         50.1780    28.5530   129.5720 c3         1 LHD       0.310000
     28 O4          50.3270    27.2250   129.9860 os         1 LHD      -0.414000
     29 C16         51.6830    26.8150   130.1650 c3         1 LHD       0.126900
     30 O5          48.4220    29.1930   131.5670 o          1 LHD      -0.458000
     31 C17         52.3770    35.3200   130.5610 c3         1 LHD      -0.125400
     32 C18         52.4800    34.1080   131.4700 c3         1 LHD       0.095600
     33 H1          49.3800    42.8620   128.6400 h5         1 LHD       0.058100
     34 H2          51.3500    36.8320   127.5900 h5         1 LHD       0.044800
     35 H3          50.0940    38.9130   130.5650 h2         1 LHD       0.144700
     36 H4          52.0590    36.6540   132.2220 h1         1 LHD       0.079700
     37 H5          49.8480    35.1630   131.4620 h1         1 LHD       0.040700
     38 H6          49.7460    36.1740   129.2990 h1         1 LHD       0.035700
     39 H7          47.6490    36.5160   130.1950 ho         1 LHD       0.519000
     40 H8          49.9220    36.5160   133.3250 ho         1 LHD       0.506000
     41 H26         52.8050    32.7880   129.9040 hn         1 LHD       0.498000
     42 H9          54.1860    33.3230   130.5850 hn         1 LHD       0.498000
     43 H10         54.0740    31.1080   131.0870 hx         1 LHD       0.095700
     44 H11         53.7350    31.9810   132.5760 hx         1 LHD       0.095700
     45 H12         50.6790    42.0930   124.4020 hn         1 LHD       0.506000
     46 H13         51.0820    40.4190   124.3040 hn         1 LHD       0.506000
     47 H14         52.3400    29.9460   129.8420 h4         1 LHD       0.198000
     48 H16         50.6250    31.9250   134.5460 hn         1 LHD       0.509500
     49 H15         52.2150    32.2920   133.9970 hn         1 LHD       0.509500
     50 H18         50.8380    28.7870   128.7320 h2         1 LHD       0.083200
     51 H17         49.1400    28.6820   129.2870 h2         1 LHD       0.083200
     52 H20         51.6640    25.7430   130.3480 h1         1 LHD       0.043700
     53 H19         52.2720    27.0240   129.2660 h1         1 LHD       0.043700
     54 H21         52.1410    27.3170   131.0220 h1         1 LHD       0.043700
     55 H22         51.8850    35.0430   129.6250 hc         1 LHD       0.076200
     56 H23         53.3760    35.6830   130.3110 hc         1 LHD       0.076200
     57 H25         53.0080    34.3340   132.3960 hx         1 LHD       0.100700
     58 H24         51.5000    33.7090   131.7170 hx         1 LHD       0.100700
@<TRIPOS>BOND
     1     1     2 ar  
     2     1     6 ar  
     3     1    20 1   
     4     2     3 ar  
     5     2     9 1   
     6     3     4 ar  
     7     3     7 1   
     8     4     5 ar  
     9     5     6 ar  
    10     5    33 1   
    11     7     8 1   
    12     7    10 1   
    13     8     9 2   
    14     8    34 1   
    15    10    11 1   
    16    10    14 1   
    17    10    35 1   
    18    11    12 1   
    19    12    13 1   
    20    12    31 1   
    21    12    36 1   
    22    13    14 1   
    23    13    16 1   
    24    13    37 1   
    25    14    15 1   
    26    14    38 1   
    27    15    39 1   
    28    16    40 1   
    29    17    18 1   
    30    17    32 1   
    31    17    41 1   
    32    17    42 1   
    33    18    19 1   
    34    18    43 1   
    35    18    44 1   
    36    19    21 1   
    37    19    25 2   
    38    20    45 1   
    39    20    46 1   
    40    21    22 2   
    41    21    26 1   
    42    22    23 1   
    43    23    24 1   
    44    23    30 2   
    45    24    25 1   
    46    24    27 1   
    47    25    47 1   
    48    26    48 1   
    49    26    49 1   
    50    27    28 1   
    51    27    50 1   
    52    27    51 1   
    53    28    29 1   
    54    29    52 1   
    55    29    53 1   
    56    29    54 1   
    57    31    32 1   
    58    31    55 1   
    59    31    56 1   
    60    32    57 1   
    61    32    58 1   
@<TRIPOS>SUBSTRUCTURE
     1 LHD         1 TEMP              0 ****  ****    0 ROOT
