@<TRIPOS>MOLECULE
LHE
   42    41     1     0     0
SMALL
bcc


@<TRIPOS>ATOM
      1 N4          -2.2940     1.7280     0.1320 n8         1 LHE      -0.863800
      2 C19         -2.3360     0.2730     0.2020 c3         1 LHE       0.129500
      3 C21         -3.5530    -0.3530    -0.4870 c3         1 LHE      -0.112400
      4 C22         -4.9130     0.1510     0.0010 c3         1 LHE      -0.063700
      5 C23         -6.0290    -0.5160    -0.7980 c3         1 LHE      -0.087100
      6 C24         -5.1110    -0.0900     1.4950 c3         1 LHE      -0.087100
      7 C25         -1.0240    -0.2880    -0.3690 c3         1 LHE       0.138100
      8 O6          -1.0270    -1.7050    -0.3880 oh         1 LHE      -0.607800
      9 C20          0.2030     0.2420     0.3630 c3         1 LHE       0.148800
     10 N5           1.4210    -0.2640    -0.2330 n7         1 LHE      -0.771200
     11 C26          2.6170     0.0920     0.5030 c3         1 LHE       0.036500
     12 C27          3.8300    -0.6480    -0.0700 c3         1 LHE      -0.064400
     13 C28          3.7760    -2.1690     0.0460 c3         1 LHE      -0.082400
     14 C29          5.0640    -2.8240    -0.4360 c3         1 LHE      -0.084100
     15 C30          2.9240     1.6080     0.4650 c          1 LHE       0.929600
     16 O7           2.4720     2.2760    -0.4830 o          1 LHE      -0.831800
     17 O8           3.6550     2.0270     1.3870 o          1 LHE      -0.831800
     18 H28         -2.3970     2.0260    -0.8330 hn         1 LHE       0.332800
     19 H29         -2.3630     0.0110     1.2680 h1         1 LHE       0.048700
     20 H30         -3.4750    -0.1700    -1.5670 hc         1 LHE       0.047700
     21 H31         -3.5260    -1.4390    -0.3620 hc         1 LHE       0.047700
     22 H32         -4.9790     1.2290    -0.1840 hc         1 LHE       0.036700
     23 H33         -6.0210    -1.5990    -0.6510 hc         1 LHE       0.029700
     24 H34         -7.0110    -0.1480    -0.4950 hc         1 LHE       0.029700
     25 H35         -5.9190    -0.3290    -1.8680 hc         1 LHE       0.029700
     26 H36         -6.1080     0.2210     1.8130 hc         1 LHE       0.029700
     27 H37         -5.0020    -1.1510     1.7360 hc         1 LHE       0.029700
     28 H38         -4.3920     0.4600     2.1040 hc         1 LHE       0.029700
     29 H39         -0.9490     0.0100    -1.4220 h1         1 LHE       0.084700
     30 H40         -1.1020    -2.0170     0.5210 ho         1 LHE       0.385000
     31 H41          0.1980     1.3290     0.3080 h1         1 LHE       0.045200
     32 H42          0.1130    -0.0150     1.4360 h1         1 LHE       0.045200
     33 H43          1.3490    -1.2730    -0.2630 hn         1 LHE       0.314800
     34 H45          2.5290    -0.1920     1.5690 h1         1 LHE      -0.001300
     35 H46          3.9530    -0.3670    -1.1220 hc         1 LHE       0.049700
     36 H47          4.7220    -0.2930     0.4540 hc         1 LHE       0.049700
     37 H48          3.5890    -2.4460     1.0880 hc         1 LHE       0.025700
     38 H49          2.9410    -2.5730    -0.5340 hc         1 LHE       0.025700
     39 H50          5.2530    -2.5940    -1.4860 hc         1 LHE       0.018700
     40 H51          5.9240    -2.4690     0.1370 hc         1 LHE       0.018700
     41 H52          5.0250    -3.9090    -0.3380 hc         1 LHE       0.018700
     42 H2          -3.0880     2.1200     0.6240 hn         1 LHE       0.332800
@<TRIPOS>BOND
     1     1     2 1   
     2     1    18 1   
     3     1    42 1   
     4     2     3 1   
     5     2     7 1   
     6     2    19 1   
     7     3     4 1   
     8     3    20 1   
     9     3    21 1   
    10     4     5 1   
    11     4     6 1   
    12     4    22 1   
    13     5    23 1   
    14     5    24 1   
    15     5    25 1   
    16     6    26 1   
    17     6    27 1   
    18     6    28 1   
    19     7     8 1   
    20     7     9 1   
    21     7    29 1   
    22     8    30 1   
    23     9    10 1   
    24     9    31 1   
    25     9    32 1   
    26    10    11 1   
    27    10    33 1   
    28    11    12 1   
    29    11    15 1   
    30    11    34 1   
    31    12    13 1   
    32    12    35 1   
    33    12    36 1   
    34    13    14 1   
    35    13    37 1   
    36    13    38 1   
    37    14    39 1   
    38    14    40 1   
    39    14    41 1   
    40    15    16 1   
    41    15    17 1   
@<TRIPOS>SUBSTRUCTURE
     1 LHE         1 TEMP              0 ****  ****    0 ROOT
