@<TRIPOS>MOLECULE
LHE
   42    41     1     0     0
SMALL
No Charge or Current Charge


@<TRIPOS>ATOM
      1 N4          -2.4380     1.7780     0.0780 n8         1 LHE      -0.974200
      2 C19         -2.3580     0.3010     0.1640 c3         1 LHE       0.129500
      3 C21         -3.6150    -0.3220    -0.5140 c3         1 LHE      -0.112400
      4 C22         -4.9990     0.1040     0.0640 c3         1 LHE      -0.063700
      5 C23         -6.1510    -0.5030    -0.7690 c3         1 LHE      -0.087100
      6 C24         -5.1600    -0.2560     1.5610 c3         1 LHE      -0.087100
      7 C25         -1.0070    -0.2480    -0.4250 c3         1 LHE       0.161300
      8 O6          -0.9520    -1.6910    -0.3080 oh         1 LHE      -0.670000
      9 C20          0.2510     0.3740     0.2630 c3         1 LHE       0.148800
     10 N5           1.5100    -0.1870    -0.2890 n7         1 LHE      -0.826400
     11 C26          2.7620     0.1550     0.4670 c3         1 LHE       0.036500
     12 C27          3.9520    -0.6610    -0.1090 c3         1 LHE      -0.064400
     13 C28          3.8250    -2.1930     0.0860 c3         1 LHE      -0.082400
     14 C29          5.0450    -2.9710    -0.4430 c3         1 LHE      -0.084100
     15 C30          3.1000     1.7060     0.5420 c          1 LHE       0.719000
     16 O7           3.6520     2.2470    -0.4100 o          1 LHE      -0.726500
     17 O8           2.8220     2.3070     1.5730 o          1 LHE      -0.726500
     18 H28         -2.5630     2.0500    -0.9030 hn         1 LHE       0.388000
     19 H29         -2.3720     0.0370     1.2310 h1         1 LHE       0.048700
     20 H30         -3.5880    -0.0810    -1.5840 hc         1 LHE       0.047700
     21 H31         -3.5500    -1.4150    -0.4500 hc         1 LHE       0.047700
     22 H32         -5.0920     1.1940    -0.0240 hc         1 LHE       0.036700
     23 H33         -6.1320    -1.5990    -0.7220 hc         1 LHE       0.029700
     24 H34         -7.1230    -0.1600    -0.3950 hc         1 LHE       0.029700
     25 H35         -6.0700    -0.2030    -1.8210 hc         1 LHE       0.029700
     26 H36         -6.1590     0.0210     1.9190 hc         1 LHE       0.029700
     27 H37         -5.0270    -1.3320     1.7200 hc         1 LHE       0.029700
     28 H38         -4.4300     0.2790     2.1790 hc         1 LHE       0.029700
     29 H39         -0.9700     0.0340    -1.4860 h1         1 LHE       0.084700
     30 H40         -0.9910    -1.9020     0.6490 ho         1 LHE       0.424000
     31 H41          0.2370     1.4640     0.1330 h1         1 LHE       0.045200
     32 H42          0.1860     0.1750     1.3420 h1         1 LHE       0.045200
     33 H43          1.4070    -1.2070    -0.2910 hn         1 LHE       0.370000
     34 H45          2.6330    -0.1780     1.5060 h1         1 LHE      -0.001300
     35 H46          4.0690    -0.4370    -1.1770 hc         1 LHE       0.049700
     36 H47          4.8720    -0.3260     0.3840 hc         1 LHE       0.049700
     37 H48          3.6990    -2.4130     1.1530 hc         1 LHE       0.025700
     38 H49          2.9270    -2.5600    -0.4250 hc         1 LHE       0.025700
     39 H50          5.1790    -2.7970    -1.5180 hc         1 LHE       0.018700
     40 H51          5.9590    -2.6590     0.0760 hc         1 LHE       0.018700
     41 H52          4.9100    -4.0470    -0.2840 hc         1 LHE       0.018700
     42 H2          -3.3100     2.0840     0.5220 hn         1 LHE       0.388000
@<TRIPOS>BOND
     1     1     2 1   
     2     1    18 1   
     3     1    42 1   
     4     2     3 1   
     5     2     7 1   
     6     2    19 1   
     7     3     4 1   
     8     3    20 1   
     9     3    21 1   
    10     4     5 1   
    11     4     6 1   
    12     4    22 1   
    13     5    23 1   
    14     5    24 1   
    15     5    25 1   
    16     6    26 1   
    17     6    27 1   
    18     6    28 1   
    19     7     8 1   
    20     7     9 1   
    21     7    29 1   
    22     8    30 1   
    23     9    10 1   
    24     9    31 1   
    25     9    32 1   
    26    10    11 1   
    27    10    33 1   
    28    11    12 1   
    29    11    15 1   
    30    11    34 1   
    31    12    13 1   
    32    12    35 1   
    33    12    36 1   
    34    13    14 1   
    35    13    37 1   
    36    13    38 1   
    37    14    39 1   
    38    14    40 1   
    39    14    41 1   
    40    15    16 1   
    41    15    17 1   
@<TRIPOS>SUBSTRUCTURE
     1 LHE         1 TEMP              0 ****  ****    0 ROOT
