@<TRIPOS>MOLECULE
LHF
   67    71     1     0     0
SMALL
abcg2


@<TRIPOS>ATOM
      1 C1          24.5900    23.4920   118.2630 c5         1 LHF       0.315300
      2 C2          24.6090    26.3620   114.9650 ca         1 LHF       0.180900
      3 C7          25.6740    23.2000   119.3010 c5         1 LHF       0.139300
      4 C3          25.3800    21.7410   119.6560 c5         1 LHF       0.102300
      5 C32         22.8710    20.2560   124.3080 c3         1 LHF       0.223000
      6 C36         26.9450    18.9460   124.9050 c          1 LHF       0.703400
      7 C38         25.1340    20.4660   125.3220 cc         1 LHF       0.022600
      8 C39         24.2770    19.7480   124.5550 cd         1 LHF      -0.421800
      9 C4          24.2830    25.6750   117.0420 ca         1 LHF       0.150500
     10 C9          23.8460    21.7300   119.6440 c5         1 LHF       0.134300
     11 C40         24.8310    18.5520   123.9830 cd         1 LHF       0.788500
     12 C5          23.8200    26.9280   117.4390 ca         1 LHF      -0.102600
     13 C10         23.1920    22.0500   120.9810 c3         1 LHF      -0.098400
     14 C50         28.0710    21.9130   125.4160 c3         1 LHF       0.143600
     15 C54         31.3720    25.6410   124.7660 ca         1 LHF      -0.045900
     16 C55         30.5720    24.9430   123.8770 ca         1 LHF      -0.046500
     17 C56         29.7390    23.9300   124.3480 ca         1 LHF      -0.167500
     18 C57         29.7180    23.6260   125.7090 ca         1 LHF       0.152100
     19 C58         30.5330    24.3390   126.5920 ca         1 LHF      -0.167500
     20 C59         31.3610    25.3460   126.1250 ca         1 LHF      -0.046500
     21 C6          23.7830    27.9310   116.4510 ca         1 LHF       0.449900
     22 C65         23.2730    20.8880   121.9620 c3         1 LHF       0.155800
     23 C8          23.7290    25.6920   119.1760 cc         1 LHF       0.407700
     24 N1          24.1910    27.6090   115.2080 nb         1 LHF      -0.298000
     25 N3          24.6910    25.3380   115.8130 nb         1 LHF      -0.213000
     26 N31         22.7440    21.2820   123.2660 n7         1 LHF      -0.852400
     27 N37         26.4250    20.1020   125.5200 n          1 LHF      -0.315000
     28 N41         26.0990    18.1930   124.1640 nc         1 LHF      -0.765100
     29 N43         24.0750    17.7360   123.2300 nv         1 LHF      -1.037200
     30 N6          23.3630    29.1810   116.6960 nv         1 LHF      -1.069900
     31 N7          23.4760    26.9140   118.7810 nd         1 LHF      -0.552100
     32 N9          24.2250    24.8890   118.1710 na         1 LHF      -0.296300
     33 O2          26.9420    23.4820   118.7560 oh         1 LHF      -0.672000
     34 O3          25.9310    20.9140   118.6390 oh         1 LHF      -0.688000
     35 O4          23.4660    22.7270   118.6540 os         1 LHF      -0.453000
     36 O42         28.1360    18.6640   125.0700 o          1 LHF      -0.540000
     37 O53         28.9410    22.6590   126.2650 os         1 LHF      -0.349100
     38 H1          24.9370    23.2050   117.2680 h2         1 LHF       0.131700
     39 H2          24.9210    26.1630   113.9450 h5         1 LHF       0.049100
     40 H7          25.4900    23.8080   120.1900 h1         1 LHF       0.040700
     41 H3          25.7840    21.4710   120.6350 h1         1 LHF       0.053700
     42 H34         22.4900    20.6900   125.2340 h1         1 LHF       0.059700
     43 H35         22.2010    19.4300   124.0600 h1         1 LHF       0.059700
     44 H46         24.8220    21.3790   125.8130 h4         1 LHF       0.200000
     45 H4          23.4870    20.7650   119.2770 h1         1 LHF       0.074700
     46 H5'2        23.6660    22.9340   121.4210 hc         1 LHF       0.061200
     47 H5'1        22.1460    22.3050   120.7990 hc         1 LHF       0.061200
     48 H52         27.3730    22.5830   124.9060 h1         1 LHF       0.047700
     49 H51         28.6470    21.3630   124.6690 h1         1 LHF       0.047700
     50 H61         30.5870    25.1760   122.8220 ha         1 LHF       0.131500
     51 H62         29.1210    23.3930   123.6430 ha         1 LHF       0.125000
     52 H63         30.5080    24.0940   127.6460 ha         1 LHF       0.125000
     53 H64         31.9890    25.8940   126.8130 ha         1 LHF       0.131500
     54 H67         22.6780    20.0480   121.5900 h1         1 LHF       0.032700
     55 H66         24.3110    20.5350   122.0290 h1         1 LHF       0.032700
     56 H8          23.5700    25.3100   120.1720 h5         1 LHF       0.061800
     57 H33         23.2370    22.1130   123.5780 hn         1 LHF       0.404000
     58 H44         24.4840    16.8930   122.8620 hn         1 LHF       0.506000
     59 H45         23.1000    17.9080   123.0650 hn         1 LHF       0.506000
     60 HN62        23.3490    29.8600   115.9540 hn         1 LHF       0.507500
     61 HN61        23.0470    29.4500   117.6120 hn         1 LHF       0.507500
     62 HO2         27.5870    23.5190   119.4730 ho         1 LHF       0.510000
     63 H9          25.6970    19.9980   118.8370 ho         1 LHF       0.506000
     64 C47         27.3130    20.9470   126.3140 c3         1 LHF       0.091000
     65 BR1         32.5130    27.0380   124.1160 br         1 LHF      -0.105100
     66 H48         26.7100    21.4970   127.0350 h1         1 LHF       0.082700
     67 H49         28.0120    20.3090   126.8490 h1         1 LHF       0.082700
@<TRIPOS>BOND
     1     1     3 1   
     2     1    32 1   
     3     1    35 1   
     4     1    38 1   
     5     2    24 ar  
     6     2    25 ar  
     7     2    39 1   
     8     3     4 1   
     9     3    33 1   
    10     3    40 1   
    11     4    10 1   
    12     4    34 1   
    13     4    41 1   
    14     5     8 1   
    15     5    26 1   
    16     5    42 1   
    17     5    43 1   
    18     6    27 1   
    19     6    28 1   
    20     6    36 2   
    21     7     8 2   
    22     7    27 1   
    23     7    44 1   
    24     8    11 1   
    25     9    12 ar  
    26     9    25 ar  
    27     9    32 1   
    28    10    13 1   
    29    10    35 1   
    30    10    45 1   
    31    11    28 2   
    32    11    29 1   
    33    12    21 ar  
    34    12    31 1   
    35    13    22 1   
    36    13    46 1   
    37    13    47 1   
    38    14    37 1   
    39    14    48 1   
    40    14    49 1   
    41    14    64 1   
    42    15    16 ar  
    43    15    20 ar  
    44    15    65 1   
    45    16    17 ar  
    46    16    50 1   
    47    17    18 ar  
    48    17    51 1   
    49    18    19 ar  
    50    18    37 1   
    51    19    20 ar  
    52    19    52 1   
    53    20    53 1   
    54    21    24 ar  
    55    21    30 1   
    56    22    26 1   
    57    22    54 1   
    58    22    55 1   
    59    23    31 2   
    60    23    32 1   
    61    23    56 1   
    62    26    57 1   
    63    27    64 1   
    64    29    58 1   
    65    29    59 1   
    66    30    60 1   
    67    30    61 1   
    68    33    62 1   
    69    34    63 1   
    70    64    66 1   
    71    64    67 1   
@<TRIPOS>SUBSTRUCTURE
     1 LHF         1 TEMP              0 ****  ****    0 ROOT
