@<TRIPOS>MOLECULE
LHF
   67    71     1     0     0
SMALL
No Charge or Current Charge


@<TRIPOS>ATOM
      1 C1          25.6340    23.2560   119.1440 c5         1 LHF       0.315300
      2 C2          26.1580    27.4120   117.5780 ca         1 LHF       0.180900
      3 C7          26.3260    22.0820   119.9290 c5         1 LHF       0.139300
      4 C3          25.5000    20.8700   119.4260 c5         1 LHF       0.102300
      5 C32         22.5960    19.5830   123.9030 c3         1 LHF       0.223000
      6 C36         26.5880    19.5000   125.5650 c          1 LHF       0.703400
      7 C38         24.6750    20.7610   124.7540 cc         1 LHF       0.022600
      8 C39         23.9850    19.5920   124.4950 cd         1 LHF      -0.421800
      9 C4          25.7860    25.7780   119.1330 ca         1 LHF       0.150500
     10 C9          24.0660    21.5030   119.4180 c5         1 LHF       0.134300
     11 C40         24.6910    18.4000   124.8450 cd         1 LHF       0.788500
     12 C5          25.6700    26.7340   120.1100 ca         1 LHF      -0.102600
     13 C10         23.3680    21.6550   120.7990 c3         1 LHF      -0.098400
     14 C50         27.3730    22.4950   124.1600 c3         1 LHF       0.143600
     15 C54         29.0510    26.2870   121.1690 ca         1 LHF      -0.045900
     16 C55         29.0030    24.8940   120.9940 ca         1 LHF      -0.046500
     17 C56         28.5930    24.0670   122.0540 ca         1 LHF      -0.167500
     18 C57         28.2190    24.6340   123.2910 ca         1 LHF       0.152100
     19 C58         28.2910    26.0260   123.4660 ca         1 LHF      -0.167500
     20 C59         28.7040    26.8550   122.4070 ca         1 LHF      -0.046500
     21 C6          25.8160    28.0860   119.7370 ca         1 LHF       0.449900
     22 C65         23.2750    20.3580   121.6280 c3         1 LHF       0.155800
     23 C8          25.4160    24.8570   121.1260 cc         1 LHF       0.407700
     24 N1          26.0570    28.4330   118.4640 nb         1 LHF      -0.298000
     25 N3          26.0350    26.0900   117.8460 nb         1 LHF      -0.213000
     26 N31         22.4730    20.5970   122.8440 n7         1 LHF      -0.852400
     27 N37         25.9680    20.7270   125.2640 n          1 LHF      -0.315000
     28 N41         25.8830    18.3520   125.3410 nc         1 LHF      -0.765100
     29 N43         24.1570    17.1980   124.7130 nv         1 LHF      -1.037200
     30 N6          25.7130    29.1070   120.6290 nv         1 LHF      -1.069900
     31 N7          25.4210    26.1810   121.3690 nd         1 LHF      -0.552100
     32 N9          25.6030    24.5820   119.7670 na         1 LHF      -0.296300
     33 O2          27.7040    21.8880   119.5940 oh         1 LHF      -0.672000
     34 O3          25.9440    20.4640   118.1150 oh         1 LHF      -0.688000
     35 O4          24.2760    22.8220   118.8580 os         1 LHF      -0.453000
     36 O42         27.7230    19.4340   126.0080 o          1 LHF      -0.540000
     37 O53         27.7550    23.8700   124.3420 os         1 LHF      -0.349100
     38 H1          26.1600    23.3870   118.1900 h2         1 LHF       0.131700
     39 H2          26.3570    27.6820   116.5420 h5         1 LHF       0.049100
     40 H7          26.2130    22.2060   121.0140 h1         1 LHF       0.040700
     41 H3          25.5720    20.0230   120.1220 h1         1 LHF       0.053700
     42 H34         21.8740    19.7870   124.7070 h1         1 LHF       0.059700
     43 H35         22.3520    18.5930   123.4930 h1         1 LHF       0.059700
     44 H46         24.3130    21.7710   124.5840 h4         1 LHF       0.200000
     45 H4          23.3910    20.9380   118.7610 h1         1 LHF       0.074700
     46 H5'2        23.8730    22.4120   121.4070 hc         1 LHF       0.061200
     47 H5'1        22.3520    22.0320   120.6310 hc         1 LHF       0.061200
     48 H52         26.6430    22.4130   123.3450 h1         1 LHF       0.047700
     49 H51         28.2400    21.8670   123.9170 h1         1 LHF       0.047700
     50 H61         29.2760    24.4550   120.0370 ha         1 LHF       0.131500
     51 H62         28.5680    22.9940   121.8960 ha         1 LHF       0.125000
     52 H63         28.0050    26.4660   124.4180 ha         1 LHF       0.125000
     53 H64         28.7400    27.9340   122.5400 ha         1 LHF       0.131500
     54 H67         22.8250    19.5590   121.0240 h1         1 LHF       0.032700
     55 H66         24.2930    20.0450   121.8960 h1         1 LHF       0.032700
     56 H8          25.2730    24.0820   121.8680 h5         1 LHF       0.061800
     57 H33         22.7450    21.4970   123.2470 hn         1 LHF       0.404000
     58 H44         24.6920    16.4920   125.1980 hn         1 LHF       0.506000
     59 H45         23.1580    17.1440   124.8450 hn         1 LHF       0.506000
     60 HN62        25.5280    30.0390   120.2680 hn         1 LHF       0.507500
     61 HN61        25.3230    28.8840   121.5410 hn         1 LHF       0.507500
     62 HO2         27.6630    21.2620   118.8280 ho         1 LHF       0.510000
     63 H9          25.3490    19.7390   117.8080 ho         1 LHF       0.506000
     64 C47         26.7200    21.9930   125.4630 c3         1 LHF       0.091000
     65 Br1         29.5780    27.4100   119.7150 br         1 LHF      -0.105100
     66 H48         26.0230    22.7580   125.8270 h1         1 LHF       0.082700
     67 H49         27.4910    21.8710   126.2330 h1         1 LHF       0.082700
@<TRIPOS>BOND
     1     1     3 1   
     2     1    32 1   
     3     1    35 1   
     4     1    38 1   
     5     2    24 ar  
     6     2    25 ar  
     7     2    39 1   
     8     3     4 1   
     9     3    33 1   
    10     3    40 1   
    11     4    10 1   
    12     4    34 1   
    13     4    41 1   
    14     5     8 1   
    15     5    26 1   
    16     5    42 1   
    17     5    43 1   
    18     6    27 1   
    19     6    28 1   
    20     6    36 2   
    21     7     8 2   
    22     7    27 1   
    23     7    44 1   
    24     8    11 1   
    25     9    12 ar  
    26     9    25 ar  
    27     9    32 1   
    28    10    13 1   
    29    10    35 1   
    30    10    45 1   
    31    11    28 2   
    32    11    29 1   
    33    12    21 ar  
    34    12    31 1   
    35    13    22 1   
    36    13    46 1   
    37    13    47 1   
    38    14    37 1   
    39    14    48 1   
    40    14    49 1   
    41    14    64 1   
    42    15    16 ar  
    43    15    20 ar  
    44    15    65 1   
    45    16    17 ar  
    46    16    50 1   
    47    17    18 ar  
    48    17    51 1   
    49    18    19 ar  
    50    18    37 1   
    51    19    20 ar  
    52    19    52 1   
    53    20    53 1   
    54    21    24 ar  
    55    21    30 1   
    56    22    26 1   
    57    22    54 1   
    58    22    55 1   
    59    23    31 2   
    60    23    32 1   
    61    23    56 1   
    62    26    57 1   
    63    27    64 1   
    64    29    58 1   
    65    29    59 1   
    66    30    60 1   
    67    30    61 1   
    68    33    62 1   
    69    34    63 1   
    70    64    66 1   
    71    64    67 1   
@<TRIPOS>SUBSTRUCTURE
     1 LHF         1 TEMP              0 ****  ****    0 ROOT
