@<TRIPOS>MOLECULE
LHG
  123   122     1     0     0
SMALL
abcg2


@<TRIPOS>ATOM
      1 O1         104.9180   135.6820    59.7700 oh         1 LHG      -0.644000
      2 C1         104.2400   135.0620    60.8390 c3         1 LHG       0.157600
      3 C2         103.0990   134.2150    60.3060 c3         1 LHG       0.161300
      4 O2         103.6320   133.1250    59.5990 oh         1 LHG      -0.713000
      5 C3         102.1270   135.0570    59.4820 c3         1 LHG       0.196600
      6 O3         100.8900   134.3820    59.2940 os         1 LHG      -0.631400
      7 P          100.6260   133.4850    57.9460 p5         1 LHG       1.408800
      8 O4         100.3460   134.3670    56.7750 o          1 LHG      -0.808500
      9 O5         101.6810   132.4120    57.8660 o          1 LHG      -0.808500
     10 O6          99.2620   132.7370    58.4470 os         1 LHG      -0.587400
     11 C4          98.1050   133.4780    58.7750 c3         1 LHG       0.238600
     12 C5          97.5440   132.9100    60.0750 c3         1 LHG       0.160300
     13 C6          98.5100   132.9780    61.2460 c3         1 LHG       0.142600
     14 O7          96.3890   133.7030    60.3570 os         1 LHG      -0.444100
     15 C7          95.5220   133.2990    61.2800 c          1 LHG       0.601100
     16 O9          95.4880   132.1730    61.7090 o          1 LHG      -0.506000
     17 C8          94.6160   134.4020    61.7650 c3         1 LHG      -0.136400
     18 C9          94.8470   135.8080    61.2160 c3         1 LHG      -0.068400
     19 C10         94.2600   136.8880    62.1240 c3         1 LHG      -0.076400
     20 O8          98.6200   134.3470    61.6260 os         1 LHG      -0.433100
     21 C23         99.3430   134.6430    62.7000 c          1 LHG       0.600100
     22 O10         99.9930   133.8270    63.3020 o          1 LHG      -0.498000
     23 C24         99.1920   136.0950    63.0770 c3         1 LHG      -0.140400
     24 C11         95.1080   137.1410    63.3670 c3         1 LHG      -0.080400
     25 C12         94.5420   138.2300    64.2690 c3         1 LHG      -0.074400
     26 C13         95.3950   138.5290    65.4990 c3         1 LHG      -0.073400
     27 C14         96.7720   139.1070    65.1740 c3         1 LHG      -0.075400
     28 C15         97.4810   139.7210    66.3770 c3         1 LHG      -0.073400
     29 C16         97.8910   138.7160    67.4480 c3         1 LHG      -0.076400
     30 C17         98.5290   139.3790    68.6620 c3         1 LHG      -0.074400
     31 C18         99.0000   138.3890    69.7200 c3         1 LHG      -0.076400
     32 C19         99.4790   139.0640    70.9990 c3         1 LHG      -0.074400
     33 C20        100.0180   138.0780    72.0290 c3         1 LHG      -0.075400
     34 C21        100.3050   138.6910    73.3970 c3         1 LHG      -0.072400
     35 C22        101.2870   139.8550    73.3660 c3         1 LHG      -0.090100
     36 C25        100.1980   136.5600    64.1160 c3         1 LHG      -0.063400
     37 C26        101.6130   136.7200    63.5620 c3         1 LHG      -0.078400
     38 C27        102.6770   136.7950    64.6540 c3         1 LHG      -0.069400
     39 C28        103.0000   135.4280    65.2520 c3         1 LHG      -0.080400
     40 C29        103.9580   135.4630    66.4400 c3         1 LHG      -0.072400
     41 C30        103.3800   136.1330    67.6830 c3         1 LHG      -0.075400
     42 C31        104.2370   135.9280    68.9260 c3         1 LHG      -0.075400
     43 C32        103.6650   136.6020    70.1660 c3         1 LHG      -0.075400
     44 C33        104.4750   136.3410    71.4280 c3         1 LHG      -0.073400
     45 C34        103.9020   137.0390    72.6530 c3         1 LHG      -0.077400
     46 C35        104.6820   136.7800    73.9350 c3         1 LHG      -0.074400
     47 C36        104.0870   137.5010    75.1390 c3         1 LHG      -0.074400
     48 C37        104.8620   137.3070    76.4390 c3         1 LHG      -0.072400
     49 C38        104.8620   135.8720    76.9500 c3         1 LHG      -0.089100
     50 HO1        105.6110   136.2380    60.1370 ho         1 LHG       0.418000
     51 HC11       104.9090   134.4200    61.4270 h1         1 LHG       0.009200
     52 HC12       103.8180   135.7990    61.5350 h1         1 LHG       0.009200
     53 HC2        102.5400   133.8780    61.1970 h1         1 LHG       0.028700
     54 H02        102.9500   132.7640    58.9920 ho         1 LHG       0.521000
     55 HC31       101.9020   135.9790    60.0230 h1         1 LHG       0.033200
     56 HC32       102.5770   135.3450    58.5260 h1         1 LHG       0.033200
     57 HC41        98.3060   134.5470    58.8900 h1         1 LHG       0.039700
     58 HC42        97.3570   133.3690    57.9850 h1         1 LHG       0.039700
     59 HC5         97.2730   131.8610    59.9200 h1         1 LHG       0.077700
     60 HC61        98.1390   132.3860    62.0840 h1         1 LHG       0.070700
     61 HC62        99.4770   132.5670    60.9530 h1         1 LHG       0.070700
     62 HC81        93.5850   134.0860    61.5840 hc         1 LHG       0.062700
     63 HC82        94.7240   134.3920    62.8540 hc         1 LHG       0.062700
     64 HC91        95.9150   136.0040    61.0990 hc         1 LHG       0.060700
     65 HC92        94.4120   135.8820    60.2170 hc         1 LHG       0.060700
     66 H101        94.1840   137.8220    61.5590 hc         1 LHG       0.034700
     67 H102        93.2380   136.6250    62.4150 hc         1 LHG       0.034700
     68 H241        99.2390   136.7110    62.1750 hc         1 LHG       0.067700
     69 H242        98.1710   136.2150    63.4570 hc         1 LHG       0.067700
     70 H111        95.2160   136.2190    63.9490 hc         1 LHG       0.041200
     71 H112        96.1180   137.4110    63.0430 hc         1 LHG       0.041200
     72 H121        94.4170   139.1510    63.6880 hc         1 LHG       0.034200
     73 H122        93.5380   137.9370    64.5910 hc         1 LHG       0.034200
     74 H131        94.8580   139.2450    66.1310 hc         1 LHG       0.035700
     75 H132        95.4960   137.6170    66.0970 hc         1 LHG       0.035700
     76 H141        97.4140   138.3380    64.7310 hc         1 LHG       0.041200
     77 H142        96.6520   139.8780    64.4050 hc         1 LHG       0.041200
     78 H151        98.3750   140.2530    66.0350 hc         1 LHG       0.034700
     79 H152        96.8300   140.4800    66.8240 hc         1 LHG       0.034700
     80 H161        97.0210   138.1400    67.7770 hc         1 LHG       0.040700
     81 H162        98.5870   137.9900    67.0110 hc         1 LHG       0.040700
     82 H171        99.3760   139.9950    68.3420 hc         1 LHG       0.034200
     83 H172        97.8060   140.0690    69.1110 hc         1 LHG       0.034200
     84 H181        98.1840   137.6990    69.9620 hc         1 LHG       0.039200
     85 H182        99.8050   137.7710    69.3050 hc         1 LHG       0.039200
     86 H191       100.2500   139.8010    70.7530 hc         1 LHG       0.035700
     87 H192        98.6490   139.6310    71.4360 hc         1 LHG       0.035700
     88 H201        99.2970   137.2630    72.1530 hc         1 LHG       0.038700
     89 H202       100.9310   137.6150    71.6390 hc         1 LHG       0.038700
     90 H211        99.3640   139.0230    73.8470 hc         1 LHG       0.034200
     91 H212       100.6950   137.9100    74.0560 hc         1 LHG       0.034200
     92 H221       101.5420   140.1810    74.3750 hc         1 LHG       0.030700
     93 H222       102.2160   139.5740    72.8680 hc         1 LHG       0.030700
     94 H223       100.8790   140.7170    72.8380 hc         1 LHG       0.030700
     95 H251        99.8650   137.5200    64.5180 hc         1 LHG       0.040700
     96 H252       100.1890   135.8680    64.9610 hc         1 LHG       0.040700
     97 H261       101.8530   135.8890    62.8910 hc         1 LHG       0.049200
     98 H262       101.6470   137.6210    62.9430 hc         1 LHG       0.049200
     99 H271       103.5980   137.2220    64.2440 hc         1 LHG       0.029700
    100 H272       102.3440   137.4860    65.4350 hc         1 LHG       0.029700
    101 H281       102.0780   134.9270    65.5640 hc         1 LHG       0.051200
    102 H282       103.4260   134.8020    64.4620 hc         1 LHG       0.051200
    103 H291       104.2340   134.4340    66.6930 hc         1 LHG       0.034700
    104 H292       104.8890   135.9630    66.1530 hc         1 LHG       0.034700
    105 H301       102.3770   135.7340    67.8710 hc         1 LHG       0.037200
    106 H302       103.2510   137.2050    67.5090 hc         1 LHG       0.037200
    107 H311       104.3440   134.8540    69.1140 hc         1 LHG       0.035700
    108 H312       105.2490   136.3050    68.7420 hc         1 LHG       0.035700
    109 H321       103.5980   137.6820    69.9940 hc         1 LHG       0.036200
    110 H322       102.6350   136.2590    70.3210 hc         1 LHG       0.036200
    111 H331       104.5230   135.2620    71.6120 hc         1 LHG       0.036700
    112 H332       105.5090   136.6680    71.2740 hc         1 LHG       0.036700
    113 H341       103.8650   138.1180    72.4650 hc         1 LHG       0.036700
    114 H342       102.8620   136.7250    72.7960 hc         1 LHG       0.036700
    115 H351       104.7150   135.7010    74.1190 hc         1 LHG       0.037200
    116 H352       105.7220   137.0970    73.8010 hc         1 LHG       0.037200
    117 H361       104.0330   138.5720    74.9150 hc         1 LHG       0.036200
    118 H362       103.0510   137.1720    75.2820 hc         1 LHG       0.036200
    119 H371       105.8920   137.6480    76.3010 hc         1 LHG       0.034700
    120 H372       104.4310   137.9570    77.2060 hc         1 LHG       0.034700
    121 H381       105.3660   135.7970    77.9150 hc         1 LHG       0.030700
    122 H382       103.8420   135.5030    77.0820 hc         1 LHG       0.030700
    123 H383       105.3710   135.1930    76.2650 hc         1 LHG       0.030700
@<TRIPOS>BOND
     1     1     2 1   
     2     1    50 1   
     3     2     3 1   
     4     2    51 1   
     5     2    52 1   
     6     3     4 1   
     7     3     5 1   
     8     3    53 1   
     9     4    54 1   
    10     5     6 1   
    11     5    55 1   
    12     5    56 1   
    13     6     7 1   
    14     7     8 1   
    15     7     9 1   
    16     7    10 1   
    17    10    11 1   
    18    11    12 1   
    19    11    57 1   
    20    11    58 1   
    21    12    13 1   
    22    12    14 1   
    23    12    59 1   
    24    13    20 1   
    25    13    60 1   
    26    13    61 1   
    27    14    15 1   
    28    15    16 2   
    29    15    17 1   
    30    17    18 1   
    31    17    62 1   
    32    17    63 1   
    33    18    19 1   
    34    18    64 1   
    35    18    65 1   
    36    19    24 1   
    37    19    66 1   
    38    19    67 1   
    39    20    21 1   
    40    21    22 2   
    41    21    23 1   
    42    23    36 1   
    43    23    68 1   
    44    23    69 1   
    45    24    25 1   
    46    24    70 1   
    47    24    71 1   
    48    25    26 1   
    49    25    72 1   
    50    25    73 1   
    51    26    27 1   
    52    26    74 1   
    53    26    75 1   
    54    27    28 1   
    55    27    76 1   
    56    27    77 1   
    57    28    29 1   
    58    28    78 1   
    59    28    79 1   
    60    29    30 1   
    61    29    80 1   
    62    29    81 1   
    63    30    31 1   
    64    30    82 1   
    65    30    83 1   
    66    31    32 1   
    67    31    84 1   
    68    31    85 1   
    69    32    33 1   
    70    32    86 1   
    71    32    87 1   
    72    33    34 1   
    73    33    88 1   
    74    33    89 1   
    75    34    35 1   
    76    34    90 1   
    77    34    91 1   
    78    35    92 1   
    79    35    93 1   
    80    35    94 1   
    81    36    37 1   
    82    36    95 1   
    83    36    96 1   
    84    37    38 1   
    85    37    97 1   
    86    37    98 1   
    87    38    39 1   
    88    38    99 1   
    89    38   100 1   
    90    39    40 1   
    91    39   101 1   
    92    39   102 1   
    93    40    41 1   
    94    40   103 1   
    95    40   104 1   
    96    41    42 1   
    97    41   105 1   
    98    41   106 1   
    99    42    43 1   
   100    42   107 1   
   101    42   108 1   
   102    43    44 1   
   103    43   109 1   
   104    43   110 1   
   105    44    45 1   
   106    44   111 1   
   107    44   112 1   
   108    45    46 1   
   109    45   113 1   
   110    45   114 1   
   111    46    47 1   
   112    46   115 1   
   113    46   116 1   
   114    47    48 1   
   115    47   117 1   
   116    47   118 1   
   117    48    49 1   
   118    48   119 1   
   119    48   120 1   
   120    49   121 1   
   121    49   122 1   
   122    49   123 1   
@<TRIPOS>SUBSTRUCTURE
     1 LHG         1 TEMP              0 ****  ****    0 ROOT
