@<TRIPOS>MOLECULE
LHG
  123   122     1     0     0
SMALL
No Charge or Current Charge


@<TRIPOS>ATOM
      1 O1         106.6100   134.2160    61.6260 oh         1 LHG      -0.644000
      2 C1         105.4140   135.0140    61.6950 c3         1 LHG       0.157600
      3 C2         104.1460   134.1550    61.9970 c3         1 LHG       0.161300
      4 O2         104.2390   133.5830    63.3230 oh         1 LHG      -0.713000
      5 C3         103.9280   133.0390    60.9120 c3         1 LHG       0.196600
      6 O3         102.5570   132.5800    60.7800 os         1 LHG      -0.631400
      7 P          101.4840   132.4350    61.9740 p5         1 LHG       1.408800
      8 O4         100.4000   131.4740    61.6280 o          1 LHG      -0.808500
      9 O5         102.1650   132.0820    63.2520 o          1 LHG      -0.808500
     10 O6         100.9600   133.9540    61.9920 os         1 LHG      -0.587400
     11 C4          99.9900   134.4120    61.0370 c3         1 LHG       0.238600
     12 C5          98.5520   134.1200    61.5500 c3         1 LHG       0.160300
     13 C6          98.2910   134.7620    62.9400 c3         1 LHG       0.142600
     14 O7          97.6220   134.6750    60.5830 os         1 LHG      -0.444100
     15 C7          96.2850   134.3910    60.6910 c          1 LHG       0.601100
     16 O9          95.8010   133.6100    61.4980 o          1 LHG      -0.506000
     17 C8          95.4640   135.1460    59.6440 c3         1 LHG      -0.136400
     18 C9          94.9870   136.5450    60.1210 c3         1 LHG      -0.068400
     19 C10         94.0000   136.5410    61.3170 c3         1 LHG      -0.076400
     20 O8          98.4250   136.1920    62.8170 os         1 LHG      -0.433100
     21 C23         98.2020   136.9490    63.9300 c          1 LHG       0.600100
     22 O10         97.8600   136.4950    65.0120 o          1 LHG      -0.498000
     23 C24         98.3860   138.4420    63.6460 c3         1 LHG      -0.140400
     24 C11         94.6550   136.7790    62.7000 c3         1 LHG      -0.080400
     25 C12         93.6310   136.7270    63.8610 c3         1 LHG      -0.074400
     26 C13         94.2080   137.0900    65.2510 c3         1 LHG      -0.073400
     27 C14         94.4960   138.6020    65.4430 c3         1 LHG      -0.075400
     28 C15         95.0110   138.9920    66.8520 c3         1 LHG      -0.073400
     29 C16         96.4150   138.4380    67.1840 c3         1 LHG      -0.076400
     30 C17         96.9920   138.9360    68.5250 c3         1 LHG      -0.074400
     31 C18         98.4000   138.3620    68.8020 c3         1 LHG      -0.076400
     32 C19         99.0300   138.8830    70.1110 c3         1 LHG      -0.074400
     33 C20        100.4220   138.2690    70.3860 c3         1 LHG      -0.075400
     34 C21        101.0760   138.7260    71.7110 c3         1 LHG      -0.072400
     35 C22        101.4620   140.2190    71.7480 c3         1 LHG      -0.090100
     36 C25         99.7120   138.9840    64.2320 c3         1 LHG      -0.063400
     37 C26        100.9940   138.4210    63.5590 c3         1 LHG      -0.078400
     38 C27        101.9860   137.7420    64.5330 c3         1 LHG      -0.069400
     39 C28        101.4940   136.3810    65.0850 c3         1 LHG      -0.080400
     40 C29        102.4800   135.7000    66.0620 c3         1 LHG      -0.072400
     41 C30        102.5530   136.3740    67.4520 c3         1 LHG      -0.075400
     42 C31        103.5530   135.6850    68.4070 c3         1 LHG      -0.075400
     43 C32        103.5640   136.3140    69.8170 c3         1 LHG      -0.075400
     44 C33        104.6080   135.6810    70.7610 c3         1 LHG      -0.073400
     45 C34        104.5930   136.3060    72.1740 c3         1 LHG      -0.077400
     46 C35        105.6420   135.6850    73.1220 c3         1 LHG      -0.074400
     47 C36        105.6200   136.3120    74.5360 c3         1 LHG      -0.074400
     48 C37        106.7090   135.7690    75.4920 c3         1 LHG      -0.072400
     49 C38        106.5530   134.2770    75.8550 c3         1 LHG      -0.089100
     50 HO1        107.3640   134.8410    61.5430 ho         1 LHG       0.418000
     51 HC11       105.5170   135.7800    62.4750 h1         1 LHG       0.009200
     52 HC12       105.2630   135.5400    60.7430 h1         1 LHG       0.009200
     53 HC2        103.2970   134.8480    61.9540 h1         1 LHG       0.028700
     54 H02        103.4490   132.9610    63.4040 ho         1 LHG       0.521000
     55 HC31       104.2520   133.4430    59.9430 h1         1 LHG       0.033200
     56 HC32       104.5900   132.1910    61.1330 h1         1 LHG       0.033200
     57 HC41       100.1060   135.4910    60.8770 h1         1 LHG       0.039700
     58 HC42       100.1330   133.9190    60.0660 h1         1 LHG       0.039700
     59 HC5         98.4130   133.0360    61.6270 h1         1 LHG       0.077700
     60 HC61        97.2920   134.4910    63.3020 h1         1 LHG       0.070700
     61 HC62        99.0170   134.3680    63.6630 h1         1 LHG       0.070700
     62 HC81        96.1020   135.3270    58.7710 hc         1 LHG       0.062700
     63 HC82        94.5930   134.5450    59.3590 hc         1 LHG       0.062700
     64 HC91        95.8580   137.1710    60.3570 hc         1 LHG       0.060700
     65 HC92        94.4890   137.0300    59.2720 hc         1 LHG       0.060700
     66 H101        93.2620   137.3370    61.1540 hc         1 LHG       0.034700
     67 H102        93.4350   135.6000    61.3290 hc         1 LHG       0.034700
     68 H241        98.3930   138.6140    62.5630 hc         1 LHG       0.067700
     69 H242        97.5560   138.9930    64.0990 hc         1 LHG       0.067700
     70 H111        95.4320   136.0270    62.8770 hc         1 LHG       0.041200
     71 H112        95.1540   137.7550    62.6880 hc         1 LHG       0.041200
     72 H121        92.7890   137.3940    63.6380 hc         1 LHG       0.034200
     73 H122        93.2180   135.7120    63.9110 hc         1 LHG       0.034200
     74 H131        93.4880   136.7760    66.0170 hc         1 LHG       0.035700
     75 H132        95.1190   136.5060    65.4210 hc         1 LHG       0.035700
     76 H141        95.2210   138.9410    64.6940 hc         1 LHG       0.041200
     77 H142        93.5710   139.1600    65.2500 hc         1 LHG       0.041200
     78 H151        95.0400   140.0860    66.9170 hc         1 LHG       0.034700
     79 H152        94.2940   138.6510    67.6100 hc         1 LHG       0.034700
     80 H161        96.3790   137.3430    67.2030 hc         1 LHG       0.040700
     81 H162        97.1060   138.7270    66.3850 hc         1 LHG       0.040700
     82 H171        97.0430   140.0320    68.5120 hc         1 LHG       0.034200
     83 H172        96.3150   138.6530    69.3410 hc         1 LHG       0.034200
     84 H181        98.3390   137.2680    68.8410 hc         1 LHG       0.039200
     85 H182        99.0630   138.6130    67.9640 hc         1 LHG       0.039200
     86 H191        99.1120   139.9750    70.0540 hc         1 LHG       0.035700
     87 H192        98.3620   138.6530    70.9510 hc         1 LHG       0.035700
     88 H201       100.3220   137.1770    70.4100 hc         1 LHG       0.038700
     89 H202       101.0960   138.5030    69.5520 hc         1 LHG       0.038700
     90 H211       100.4010   138.5050    72.5480 hc         1 LHG       0.034200
     91 H212       101.9830   138.1310    71.8770 hc         1 LHG       0.034200
     92 H221       101.9900   140.4510    72.6810 hc         1 LHG       0.030700
     93 H222       102.1230   140.4690    70.9100 hc         1 LHG       0.030700
     94 H223       100.5740   140.8590    71.6950 hc         1 LHG       0.030700
     95 H251        99.7150   140.0760    64.1250 hc         1 LHG       0.040700
     96 H252        99.7290   138.7920    65.3130 hc         1 LHG       0.040700
     97 H261       100.7360   137.7150    62.7600 hc         1 LHG       0.049200
     98 H262       101.5140   139.2510    63.0640 hc         1 LHG       0.049200
     99 H271       102.9350   137.5820    64.0070 hc         1 LHG       0.029700
    100 H272       102.1980   138.4320    65.3590 hc         1 LHG       0.029700
    101 H281       100.5310   136.5080    65.5920 hc         1 LHG       0.051200
    102 H282       101.3170   135.7050    64.2390 hc         1 LHG       0.051200
    103 H291       102.1690   134.6570    66.1950 hc         1 LHG       0.034700
    104 H292       103.4790   135.6730    65.6090 hc         1 LHG       0.034700
    105 H301       101.5550   136.3640    67.9070 hc         1 LHG       0.037200
    106 H302       102.8430   137.4260    67.3400 hc         1 LHG       0.037200
    107 H311       103.3010   134.6210    68.4900 hc         1 LHG       0.035700
    108 H312       104.5600   135.7440    67.9750 hc         1 LHG       0.035700
    109 H321       103.7590   137.3900    69.7330 hc         1 LHG       0.036200
    110 H322       102.5690   136.1990    70.2620 hc         1 LHG       0.036200
    111 H331       104.4180   134.6040    70.8400 hc         1 LHG       0.036700
    112 H332       105.6080   135.8000    70.3240 hc         1 LHG       0.036700
    113 H341       104.7740   137.3850    72.0920 hc         1 LHG       0.036700
    114 H342       103.5950   136.1800    72.6110 hc         1 LHG       0.036700
    115 H351       105.4570   134.6070    73.1950 hc         1 LHG       0.037200
    116 H352       106.6410   135.8120    72.6860 hc         1 LHG       0.037200
    117 H361       105.7540   137.3970    74.4420 hc         1 LHG       0.036200
    118 H362       104.6330   136.1560    74.9880 hc         1 LHG       0.036200
    119 H371       107.6990   135.9310    75.0480 hc         1 LHG       0.034700
    120 H372       106.6820   136.3550    76.4180 hc         1 LHG       0.034700
    121 H381       107.3060   133.9870    76.5970 hc         1 LHG       0.030700
    122 H382       105.5610   134.0820    76.2800 hc         1 LHG       0.030700
    123 H383       106.6860   133.6390    74.9730 hc         1 LHG       0.030700
@<TRIPOS>BOND
     1     1     2 1   
     2     1    50 1   
     3     2     3 1   
     4     2    51 1   
     5     2    52 1   
     6     3     4 1   
     7     3     5 1   
     8     3    53 1   
     9     4    54 1   
    10     5     6 1   
    11     5    55 1   
    12     5    56 1   
    13     6     7 1   
    14     7     8 1   
    15     7     9 1   
    16     7    10 1   
    17    10    11 1   
    18    11    12 1   
    19    11    57 1   
    20    11    58 1   
    21    12    13 1   
    22    12    14 1   
    23    12    59 1   
    24    13    20 1   
    25    13    60 1   
    26    13    61 1   
    27    14    15 1   
    28    15    16 2   
    29    15    17 1   
    30    17    18 1   
    31    17    62 1   
    32    17    63 1   
    33    18    19 1   
    34    18    64 1   
    35    18    65 1   
    36    19    24 1   
    37    19    66 1   
    38    19    67 1   
    39    20    21 1   
    40    21    22 2   
    41    21    23 1   
    42    23    36 1   
    43    23    68 1   
    44    23    69 1   
    45    24    25 1   
    46    24    70 1   
    47    24    71 1   
    48    25    26 1   
    49    25    72 1   
    50    25    73 1   
    51    26    27 1   
    52    26    74 1   
    53    26    75 1   
    54    27    28 1   
    55    27    76 1   
    56    27    77 1   
    57    28    29 1   
    58    28    78 1   
    59    28    79 1   
    60    29    30 1   
    61    29    80 1   
    62    29    81 1   
    63    30    31 1   
    64    30    82 1   
    65    30    83 1   
    66    31    32 1   
    67    31    84 1   
    68    31    85 1   
    69    32    33 1   
    70    32    86 1   
    71    32    87 1   
    72    33    34 1   
    73    33    88 1   
    74    33    89 1   
    75    34    35 1   
    76    34    90 1   
    77    34    91 1   
    78    35    92 1   
    79    35    93 1   
    80    35    94 1   
    81    36    37 1   
    82    36    95 1   
    83    36    96 1   
    84    37    38 1   
    85    37    97 1   
    86    37    98 1   
    87    38    39 1   
    88    38    99 1   
    89    38   100 1   
    90    39    40 1   
    91    39   101 1   
    92    39   102 1   
    93    40    41 1   
    94    40   103 1   
    95    40   104 1   
    96    41    42 1   
    97    41   105 1   
    98    41   106 1   
    99    42    43 1   
   100    42   107 1   
   101    42   108 1   
   102    43    44 1   
   103    43   109 1   
   104    43   110 1   
   105    44    45 1   
   106    44   111 1   
   107    44   112 1   
   108    45    46 1   
   109    45   113 1   
   110    45   114 1   
   111    46    47 1   
   112    46   115 1   
   113    46   116 1   
   114    47    48 1   
   115    47   117 1   
   116    47   118 1   
   117    48    49 1   
   118    48   119 1   
   119    48   120 1   
   120    49   121 1   
   121    49   122 1   
   122    49   123 1   
@<TRIPOS>SUBSTRUCTURE
     1 LHG         1 TEMP              0 ****  ****    0 ROOT
