@<TRIPOS>MOLECULE
LHJ
   52    56     1     0     0
SMALL
abcg2


@<TRIPOS>ATOM
      1 N1          -1.4680    -0.2910     0.8340 n          1 LHJ      -0.271000
      2 N3          -3.2230    -0.4340    -0.8770 na         1 LHJ       0.174000
      3 C4           0.7120    -1.0190     0.0050 cc         1 LHJ      -0.185400
      4 C5           0.1790    -1.3180    -1.2060 cd         1 LHJ      -0.003200
      5 C6          -2.0970    -1.2340    -2.5030 cd         1 LHJ       0.310900
      6 C7          -2.3210     0.1450     1.9340 c3         1 LHJ       0.070300
      7 C8           2.1510    -1.2290     0.2870 ca         1 LHJ      -0.038800
      8 C10         -4.4840     1.5350    -0.2480 ca         1 LHJ       0.215000
      9 C13         -6.5620    -0.0360     0.6750 ca         1 LHJ      -0.170000
     10 C15          3.0830    -0.4000    -0.3200 ca         1 LHJ      -0.040000
     11 C17          4.8760    -1.6050     0.7090 ca         1 LHJ      -0.080000
     12 C22          7.6280     1.2950    -0.8690 cx         1 LHJ       0.051700
     13 C24          8.5600     2.0320     0.0350 cx         1 LHJ      -0.136900
     14 C23          7.5540     2.7870    -0.7790 cx         1 LHJ      -0.136900
     15 N4           6.6080     0.5040    -0.2640 ns         1 LHJ      -0.483900
     16 O2           5.0580     0.9430    -1.8370 o          1 LHJ      -0.597100
     17 C16          4.4510    -0.5660    -0.1100 ca         1 LHJ      -0.157600
     18 C18          3.9490    -2.4470     1.3040 ca         1 LHJ      -0.125000
     19 C19          2.5810    -2.2780     1.1120 ca         1 LHJ      -0.023300
     20 C3          -0.1000    -0.4540     1.0780 c          1 LHJ       0.578200
     21 O1           0.3680    -0.1350     2.1620 o          1 LHJ      -0.537000
     22 C2          -1.9640    -0.5620    -0.3990 cc         1 LHJ       0.076600
     23 C1          -1.1940    -1.0800    -1.4290 cd         1 LHJ      -0.262800
     24 N2          -3.2970    -0.8440    -2.1720 nc         1 LHJ      -0.493800
     25 C9          -4.3720     0.1540    -0.3060 ca         1 LHJ      -0.056200
     26 C14         -5.4240    -0.6250     0.1500 ca         1 LHJ      -0.035000
     27 C12         -6.6200     1.3440     0.7300 ca         1 LHJ       0.216000
     28 F2          -7.7060     1.9260     1.2440 f          1 LHJ      -0.163000
     29 C11         -5.5980     2.1560     0.2770 ca         1 LHJ      -0.200000
     30 H5           0.7950    -1.7380    -1.9920 ha         1 LHJ       0.201000
     31 H6          -1.8950    -1.6150    -3.4920 h4         1 LHJ       0.049100
     32 H7          -1.7840    -0.0000     2.8640 h1         1 LHJ       0.058700
     33 H7A         -2.5790     1.1990     1.8470 h1         1 LHJ       0.058700
     34 H7B         -3.2270    -0.4540     1.9630 h1         1 LHJ       0.058700
     35 H13         -7.3830    -0.6380     1.0390 ha         1 LHJ       0.146000
     36 H15          2.7370     0.4020    -0.9600 ha         1 LHJ       0.138000
     37 H17          5.9290    -1.8010     0.8730 ha         1 LHJ       0.108000
     38 H20          0.9550    -3.6840     1.0060 hc         1 LHJ       0.047367
     39 H20A         2.1280    -4.0220     2.2760 hc         1 LHJ       0.047367
     40 H20B         0.9680    -2.7110     2.4680 hc         1 LHJ       0.047367
     41 H22          8.0480     0.8790    -1.7790 h1         1 LHJ       0.088700
     42 H24          8.3900     1.9590     1.1020 hc         1 LHJ       0.077450
     43 H24A         9.6030     2.0780    -0.2490 hc         1 LHJ       0.077450
     44 H23          7.8980     3.3580    -1.6320 hc         1 LHJ       0.077450
     45 H23A         6.7070     3.2150    -0.2600 hc         1 LHJ       0.077450
     46 HN4          6.8260     0.0330     0.5980 hn         1 LHJ       0.319500
     47 H18          4.2990    -3.2670     1.9180 ha         1 LHJ       0.114000
     48 H14         -5.3450    -1.7030     0.0990 ha         1 LHJ       0.141000
     49 H11         -5.6660     3.2350     0.3260 ha         1 LHJ       0.159000
     50 C20          1.6080    -3.2230     1.7490 c3         1 LHJ      -0.053800
     51 C21          5.3900     0.3570    -0.8160 c          1 LHJ       0.616700
     52 F1          -3.4730     2.2780    -0.6960 f          1 LHJ      -0.151000
@<TRIPOS>BOND
     1     1     6 1   
     2     1    20 1   
     3     1    22 1   
     4     2    22 1   
     5     2    24 1   
     6     2    25 1   
     7     3     4 2   
     8     3     7 1   
     9     3    20 1   
    10     4    23 1   
    11     4    30 1   
    12     5    23 1   
    13     5    24 2   
    14     5    31 1   
    15     6    32 1   
    16     6    33 1   
    17     6    34 1   
    18     7    10 ar  
    19     7    19 ar  
    20     8    25 ar  
    21     8    29 ar  
    22     8    52 1   
    23     9    26 ar  
    24     9    27 ar  
    25     9    35 1   
    26    10    17 ar  
    27    10    36 1   
    28    11    17 ar  
    29    11    18 ar  
    30    11    37 1   
    31    12    13 1   
    32    12    14 1   
    33    12    15 1   
    34    12    41 1   
    35    13    14 1   
    36    13    42 1   
    37    13    43 1   
    38    14    44 1   
    39    14    45 1   
    40    15    46 1   
    41    15    51 1   
    42    16    51 2   
    43    17    51 1   
    44    18    19 ar  
    45    18    47 1   
    46    19    50 1   
    47    20    21 2   
    48    22    23 2   
    49    25    26 ar  
    50    26    48 1   
    51    27    28 1   
    52    27    29 ar  
    53    29    49 1   
    54    38    50 1   
    55    39    50 1   
    56    40    50 1   
@<TRIPOS>SUBSTRUCTURE
     1 LHJ         1 TEMP              0 ****  ****    0 ROOT
