@<TRIPOS>MOLECULE
LHJ
   52    56     1     0     0
SMALL
No Charge or Current Charge


@<TRIPOS>ATOM
      1 N1          -1.6100    -0.0910     0.9190 n          1 LHJ      -0.271000
      2 N3          -3.2860    -0.5820    -0.9510 na         1 LHJ       0.174000
      3 C4           0.6350    -0.8200     0.1930 cc         1 LHJ      -0.185400
      4 C5           0.1580    -1.2830    -1.0230 cd         1 LHJ      -0.003200
      5 C6          -2.0240    -1.4750    -2.3750 cd         1 LHJ       0.310900
      6 C7          -2.5460     0.4790     1.9200 c3         1 LHJ       0.070300
      7 C8           2.0720    -1.0040     0.3860 ca         1 LHJ      -0.038800
      8 C10         -4.6840     1.3560    -0.4870 ca         1 LHJ       0.215000
      9 C13         -6.6290    -0.3280     0.6330 ca         1 LHJ      -0.170000
     10 C15          2.9650    -0.0930    -0.2080 ca         1 LHJ      -0.040000
     11 C17          4.8500    -1.3070     0.7240 ca         1 LHJ      -0.080000
     12 C22          7.6590     1.4500    -1.0620 cx         1 LHJ       0.051700
     13 C24          9.0650     1.2730    -0.5430 cx         1 LHJ      -0.136900
     14 C23          8.2600     2.4870    -0.1470 cx         1 LHJ      -0.136900
     15 N4           6.6370     0.5950    -0.5210 ns         1 LHJ      -0.483900
     16 O2           4.8570     1.7150    -1.3740 o          1 LHJ      -0.597100
     17 C16          4.3620    -0.2270    -0.0500 ca         1 LHJ      -0.157600
     18 C18          3.9610    -2.2190     1.3160 ca         1 LHJ      -0.125000
     19 C19          2.5710    -2.0780     1.1540 ca         1 LHJ      -0.023300
     20 C3          -0.2300    -0.1860     1.2380 c          1 LHJ       0.578200
     21 O1           0.2260     0.2240     2.3000 o          1 LHJ      -0.537000
     22 C2          -2.0390    -0.5490    -0.3230 cc         1 LHJ       0.076600
     23 C1          -1.2420    -1.1190    -1.2500 cd         1 LHJ      -0.262800
     24 N2          -3.2990    -1.1460    -2.2140 nc         1 LHJ      -0.493800
     25 C9          -4.4610    -0.0360    -0.4420 ca         1 LHJ      -0.056200
     26 C14         -5.4430    -0.8790     0.1150 ca         1 LHJ      -0.035000
     27 C12         -6.8360     1.0590     0.5900 ca         1 LHJ       0.216000
     28 F2          -7.9760     1.5840     1.0890 f          1 LHJ      -0.163000
     29 C11         -5.8670     1.9030     0.0310 ca         1 LHJ      -0.200000
     30 H5           0.8110    -1.7430    -1.7630 ha         1 LHJ       0.201000
     31 H6          -1.7030    -1.9500    -3.2940 h4         1 LHJ       0.049100
     32 H7          -2.0920     0.5260     2.9160 h1         1 LHJ       0.058700
     33 H7A         -2.8370     1.4920     1.6180 h1         1 LHJ       0.058700
     34 H7B         -3.4410    -0.1500     1.9940 h1         1 LHJ       0.058700
     35 H13         -7.3880    -0.9740     1.0670 ha         1 LHJ       0.146000
     36 H15          2.5610     0.7290    -0.7950 ha         1 LHJ       0.138000
     37 H17          5.9150    -1.4570     0.8780 ha         1 LHJ       0.108000
     38 H20          0.9250    -3.5000     1.0680 hc         1 LHJ       0.047367
     39 H20A         2.1730    -3.9300     2.2410 hc         1 LHJ       0.047367
     40 H20B         1.0430    -2.6190     2.6020 hc         1 LHJ       0.047367
     41 H22          7.5280     1.7040    -2.1160 h1         1 LHJ       0.088700
     42 H24          9.2430     0.5140     0.2140 hc         1 LHJ       0.077450
     43 H24A         9.8820     1.4140    -1.2470 hc         1 LHJ       0.077450
     44 H23          8.5350     3.4440    -0.5830 hc         1 LHJ       0.077450
     45 H23A         7.8920     2.5420     0.8750 hc         1 LHJ       0.077450
     46 HN4          6.9080    -0.2030     0.0360 hn         1 LHJ       0.319500
     47 H18          4.3590    -3.0410     1.9060 ha         1 LHJ       0.114000
     48 H14         -5.2840    -1.9550     0.1480 ha         1 LHJ       0.141000
     49 H11         -6.0330     2.9760    -0.0020 ha         1 LHJ       0.159000
     50 C20          1.6280    -3.0870     1.8020 c3         1 LHJ      -0.053800
     51 C21          5.2830     0.7810    -0.7080 c          1 LHJ       0.616700
     52 F1          -3.7560     2.1830    -1.0220 f          1 LHJ      -0.151000
@<TRIPOS>BOND
     1     1     6 1   
     2     1    20 1   
     3     1    22 1   
     4     2    22 1   
     5     2    24 1   
     6     2    25 1   
     7     3     4 2   
     8     3     7 1   
     9     3    20 1   
    10     4    23 1   
    11     4    30 1   
    12     5    23 1   
    13     5    24 2   
    14     5    31 1   
    15     6    32 1   
    16     6    33 1   
    17     6    34 1   
    18     7    10 ar  
    19     7    19 ar  
    20     8    25 ar  
    21     8    29 ar  
    22     8    52 1   
    23     9    26 ar  
    24     9    27 ar  
    25     9    35 1   
    26    10    17 ar  
    27    10    36 1   
    28    11    17 ar  
    29    11    18 ar  
    30    11    37 1   
    31    12    13 1   
    32    12    14 1   
    33    12    15 1   
    34    12    41 1   
    35    13    14 1   
    36    13    42 1   
    37    13    43 1   
    38    14    44 1   
    39    14    45 1   
    40    15    46 1   
    41    15    51 1   
    42    16    51 2   
    43    17    51 1   
    44    18    19 ar  
    45    18    47 1   
    46    19    50 1   
    47    20    21 2   
    48    22    23 2   
    49    25    26 ar  
    50    26    48 1   
    51    27    28 1   
    52    27    29 ar  
    53    29    49 1   
    54    38    50 1   
    55    39    50 1   
    56    40    50 1   
@<TRIPOS>SUBSTRUCTURE
     1 LHJ         1 TEMP              0 ****  ****    0 ROOT
