@<TRIPOS>MOLECULE
LHK
   32    31     1     0     0
SMALL
No Charge or Current Charge


@<TRIPOS>ATOM
      1 OAB         22.1770    44.3130    47.1280 o          1 LHK      -0.786500
      2 CAQ         21.1790    43.6670    46.8470 c          1 LHK       0.748000
      3 OAH         20.6020    42.9560    47.6570 o          1 LHK      -0.786500
      4 CAM         20.6080    43.7510    45.4180 c3         1 LHK      -0.179400
      5 CAU         19.4560    44.8040    45.3600 c3         1 LHK       0.060500
      6 CAS         19.9040    46.3290    45.3730 c          1 LHK       0.707000
      7 OAJ         19.0290    47.1620    45.5780 o          1 LHK      -0.748500
      8 OAD         21.0800    46.6400    45.2340 o          1 LHK      -0.748500
      9 NAO         18.4900    44.4590    44.2590 n7         1 LHK      -0.819300
     10 SAV         18.8930    44.5430    42.6730 s6         1 LHK       1.216200
     11 OAE         18.8290    43.2170    42.0620 o          1 LHK      -0.623500
     12 OAF         19.9820    45.4870    42.4510 o          1 LHK      -0.623500
     13 N           17.5180    45.3770    42.3490 n7         1 LHK      -0.862300
     14 CA          16.4810    44.7730    41.4470 c3         1 LHK       0.067500
     15 C           16.9520    44.5750    39.9480 c          1 LHK       0.719000
     16 O           16.4920    43.6380    39.3080 o          1 LHK      -0.760500
     17 OXT         17.8000    45.3360    39.4950 o          1 LHK      -0.760500
     18 CB          15.1670    45.6010    41.5220 c3         1 LHK      -0.021400
     19 CG          15.2610    47.0680    41.0210 c3         1 LHK      -0.189400
     20 CD          13.8830    47.7440    41.1200 c          1 LHK       0.716000
     21 OE2         13.1220    47.6490    40.1690 o          1 LHK      -0.786500
     22 OE1         13.5850    48.3110    42.1600 o          1 LHK      -0.786500
     23 H2          20.1370    42.7890    45.1760 hc         1 LHK       0.023700
     24 H3          21.3750    44.0510    44.6950 hc         1 LHK       0.023700
     25 H4          18.9040    44.6910    46.3040 h1         1 LHK       0.070700
     26 H6          17.7470    45.1550    44.2010 hn         1 LHK       0.483000
     27 H7          17.9670    46.0910    41.7720 hn         1 LHK       0.486000
     28 H8          16.2290    43.7730    41.8240 h1         1 LHK       0.041700
     29 H10         14.8130    45.6010    42.5600 hc         1 LHK       0.030700
     30 H11         14.3990    45.0780    40.9380 hc         1 LHK       0.030700
     31 H12         15.5780    47.0170    39.9730 hc         1 LHK       0.029200
     32 H13         15.9780    47.5750    41.6780 hc         1 LHK       0.029200
@<TRIPOS>BOND
     1     1     2 1   
     2     2     3 1   
     3     2     4 1   
     4     4     5 1   
     5     4    23 1   
     6     4    24 1   
     7     5     6 1   
     8     5     9 1   
     9     5    25 1   
    10     6     7 1   
    11     6     8 1   
    12     9    10 1   
    13     9    26 1   
    14    10    11 2   
    15    10    12 2   
    16    10    13 1   
    17    13    14 1   
    18    13    27 1   
    19    14    15 1   
    20    14    18 1   
    21    14    28 1   
    22    15    16 1   
    23    15    17 1   
    24    18    19 1   
    25    18    29 1   
    26    18    30 1   
    27    19    20 1   
    28    19    31 1   
    29    19    32 1   
    30    20    21 1   
    31    20    22 1   
@<TRIPOS>SUBSTRUCTURE
     1 LHK         1 TEMP              0 ****  ****    0 ROOT
