@<TRIPOS>MOLECULE
LHK
   32    31     1     0     0
SMALL
bcc


@<TRIPOS>ATOM
      1 OAB         21.6280    42.8100    46.8450 o          1 LHK      -0.891800
      2 CAQ         20.4890    43.2980    46.6970 c          1 LHK       0.958600
      3 OAH         19.5950    43.3640    47.5660 o          1 LHK      -0.891800
      4 CAM         20.1300    43.7850    45.2780 c3         1 LHK      -0.179400
      5 CAU         19.1620    44.9510    45.2710 c3         1 LHK       0.060500
      6 CAS         19.7740    46.3020    45.7320 c          1 LHK       0.917600
      7 OAJ         19.0750    47.3110    45.5000 o          1 LHK      -0.853800
      8 OAD         20.8650    46.2640    46.3250 o          1 LHK      -0.853800
      9 NAO         18.4060    45.1190    44.0080 n7         1 LHK      -0.764100
     10 SAV         19.2470    45.2240    42.5840 s6         1 LHK       1.357800
     11 OAE         19.6910    43.8790    42.2320 o          1 LHK      -0.694300
     12 OAF         20.2830    46.2520    42.5700 o          1 LHK      -0.694300
     13 N           18.0290    45.7730    41.6290 n7         1 LHK      -0.807100
     14 CA          16.9490    44.8520    41.2540 c3         1 LHK       0.067500
     15 C           16.9420    44.6640    39.7140 c          1 LHK       0.929600
     16 O           16.1250    43.8370    39.2770 o          1 LHK      -0.865800
     17 OXT         17.7410    45.3660    39.0600 o          1 LHK      -0.865800
     18 CB          15.6000    45.3660    41.7590 c3         1 LHK      -0.021400
     19 CG          15.1940    46.7060    41.1670 c3         1 LHK      -0.189400
     20 CD          13.8610    47.2920    41.6730 c          1 LHK       0.926600
     21 OE2         13.1390    46.5660    42.3850 o          1 LHK      -0.891800
     22 OE1         13.6080    48.4590    41.3040 o          1 LHK      -0.891800
     23 H2          19.6660    42.9340    44.7670 hc         1 LHK       0.023700
     24 H3          21.0430    44.0170    44.7290 hc         1 LHK       0.023700
     25 H4          18.3830    44.7060    46.0000 h1         1 LHK       0.070700
     26 H6          17.8580    45.9720    44.0980 hn         1 LHK       0.427800
     27 H7          18.4160    46.1680    40.7680 hn         1 LHK       0.430800
     28 H8          17.1260    43.8700    41.7030 h1         1 LHK       0.041700
     29 H10         15.6450    45.4400    42.8490 hc         1 LHK       0.030700
     30 H11         14.8450    44.6100    41.5360 hc         1 LHK       0.030700
     31 H12         15.1170    46.6230    40.0760 hc         1 LHK       0.029200
     32 H13         15.9830    47.4440    41.3420 hc         1 LHK       0.029200
@<TRIPOS>BOND
     1     1     2 1   
     2     2     3 1   
     3     2     4 1   
     4     4     5 1   
     5     4    23 1   
     6     4    24 1   
     7     5     6 1   
     8     5     9 1   
     9     5    25 1   
    10     6     7 1   
    11     6     8 1   
    12     9    10 1   
    13     9    26 1   
    14    10    11 2   
    15    10    12 2   
    16    10    13 1   
    17    13    14 1   
    18    13    27 1   
    19    14    15 1   
    20    14    18 1   
    21    14    28 1   
    22    15    16 1   
    23    15    17 1   
    24    18    19 1   
    25    18    29 1   
    26    18    30 1   
    27    19    20 1   
    28    19    31 1   
    29    19    32 1   
    30    20    21 1   
    31    20    22 1   
@<TRIPOS>SUBSTRUCTURE
     1 LHK         1 TEMP              0 ****  ****    0 ROOT
