@<TRIPOS>MOLECULE
LHL
   63    66     1     0     0
SMALL
bcc


@<TRIPOS>ATOM
      1 N1           0.0470     0.6380     0.1560 nb         1 LHL      -0.779000
      2 C2          -0.0070    -0.6510     0.4630 ca         1 LHL       0.947900
      3 N2          -1.2000    -1.2970     0.5010 nu         1 LHL      -0.727300
      4 N3           1.0450    -1.4330     0.7400 nb         1 LHL      -0.827000
      5 C4           2.2300    -0.8650     0.7280 ca         1 LHL       0.639200
      6 C5           3.1320    -3.0350     1.3930 c3         1 LHL       0.100300
      7 N5           3.3310    -1.6520     0.9900 n          1 LHL      -0.456300
      8 C6           4.5990    -1.2640     0.5780 c          1 LHL       0.842500
      9 O6           5.5150    -2.0580     0.5050 o          1 LHL      -0.622500
     10 N7           4.7500     0.0460     0.2360 n          1 LHL      -0.403000
     11 C8           3.7710     1.0810     0.5390 c6         1 LHL       0.197300
     12 C9           2.4070     0.4940     0.4490 ca         1 LHL      -0.438900
     13 C10          1.2590     1.1870     0.1520 ca         1 LHL       0.511200
     14 C21         -2.4920    -0.8590     0.2030 ca         1 LHL       0.133600
     15 C22         -3.4660    -1.8490     0.0260 ca         1 LHL      -0.126000
     16 C23         -4.7760    -1.5240    -0.2570 ca         1 LHL      -0.165500
     17 C24         -5.1640    -0.1890    -0.3800 ca         1 LHL       0.124100
     18 O24         -6.4600     0.0330    -0.6800 os         1 LHL      -0.327900
     19 C25         -4.2070     0.8000    -0.1960 ca         1 LHL      -0.165500
     20 C26         -2.8850     0.4710     0.0940 ca         1 LHL      -0.126000
     21 C27         -6.9190     1.3700    -0.7810 c3         1 LHL       0.138400
     22 C28         -8.3810     1.3920    -1.1770 c3         1 LHL       0.174800
     23 N28         -9.3230     1.1940    -0.0900 n3         1 LHL      -0.730600
     24 C29        -10.6640     1.5800    -0.5090 c3         1 LHL       0.172800
     25 C30        -11.6820     1.5930     0.6190 c3         1 LHL      -0.107600
     26 C31         -9.2600    -0.1140     0.5480 c3         1 LHL       0.172800
     27 C32         -9.6010    -1.3210    -0.3230 c3         1 LHL      -0.107600
     28 C71          6.0190     0.4570    -0.2070 ca         1 LHL       0.058600
     29 C72          6.2720     0.6150    -1.5660 ca         1 LHL       0.040900
     30 CL72         5.0150     0.2550    -2.6890 cl         1 LHL      -0.083400
     31 C73          7.5030     1.0550    -2.0270 ca         1 LHL      -0.119000
     32 C74          8.5010     1.3410    -1.1100 ca         1 LHL      -0.105000
     33 C75          8.2810     1.1960     0.2510 ca         1 LHL      -0.119000
     34 C76          7.0430     0.7570     0.6880 ca         1 LHL       0.040900
     35 CL76         6.7470     0.5760     2.3770 cl         1 LHL      -0.083400
     36 HN2         -1.1120    -2.2840     0.6900 hn         1 LHL       0.453800
     37 H5           2.8460    -3.6650     0.5510 h1         1 LHL       0.055367
     38 H5A          4.0500    -3.4170     1.8250 h1         1 LHL       0.055367
     39 H5B          2.3490    -3.0810     2.1430 h1         1 LHL       0.055367
     40 H8           3.9600     1.4990     1.5340 h1         1 LHL       0.056200
     41 H8A          3.8880     1.8920    -0.1800 h1         1 LHL       0.056200
     42 H10          1.3090     2.2430    -0.0920 h4         1 LHL       0.023100
     43 H22         -3.1910    -2.8940     0.1090 ha         1 LHL       0.147500
     44 H23         -5.5080    -2.3100    -0.3900 ha         1 LHL       0.140500
     45 H25         -4.4580     1.8490    -0.2730 ha         1 LHL       0.140500
     46 H26         -2.1690     1.2650     0.2250 ha         1 LHL       0.147500
     47 H27         -6.7780     1.9060     0.1650 h1         1 LHL       0.042200
     48 H27A        -6.3470     1.8990    -1.5520 h1         1 LHL       0.042200
     49 H28         -8.5650     2.3920    -1.5780 h1         1 LHL       0.040700
     50 H28A        -8.5290     0.7020    -2.0230 h1         1 LHL       0.040700
     51 H29        -10.5930     2.5920    -0.9170 h1         1 LHL       0.039450
     52 H29A       -11.0450     0.9540    -1.3320 h1         1 LHL       0.039450
     53 H30        -12.6040     2.0590     0.2740 hc         1 LHL       0.036533
     54 H30A       -11.9390     0.5930     0.9690 hc         1 LHL       0.036533
     55 H30B       -11.3150     2.1660     1.4720 hc         1 LHL       0.036533
     56 H31         -8.2640    -0.2470     0.9700 h1         1 LHL       0.039450
     57 H31A        -9.9340    -0.0980     1.4080 h1         1 LHL       0.039450
     58 H32         -8.9020    -1.4400    -1.1510 hc         1 LHL       0.036533
     59 H32A        -9.5550    -2.2320     0.2760 hc         1 LHL       0.036533
     60 H32B       -10.6080    -1.2570    -0.7400 hc         1 LHL       0.036533
     61 H73          7.6790     1.1690    -3.0870 ha         1 LHL       0.154000
     62 H74          9.4640     1.6850    -1.4610 ha         1 LHL       0.143000
     63 H75          9.0620     1.4210     0.9630 ha         1 LHL       0.154000
@<TRIPOS>BOND
     1     1     2 ar  
     2     1    13 ar  
     3     2     3 1   
     4     2     4 ar  
     5     3    14 1   
     6     3    36 1   
     7     4     5 ar  
     8     5     7 1   
     9     5    12 ar  
    10     6     7 1   
    11     6    37 1   
    12     6    38 1   
    13     6    39 1   
    14     7     8 1   
    15     8     9 2   
    16     8    10 1   
    17    10    11 1   
    18    10    28 1   
    19    11    12 1   
    20    11    40 1   
    21    11    41 1   
    22    12    13 ar  
    23    13    42 1   
    24    14    15 ar  
    25    14    20 ar  
    26    15    16 ar  
    27    15    43 1   
    28    16    17 ar  
    29    16    44 1   
    30    17    18 1   
    31    17    19 ar  
    32    18    21 1   
    33    19    20 ar  
    34    19    45 1   
    35    20    46 1   
    36    21    22 1   
    37    21    47 1   
    38    21    48 1   
    39    22    23 1   
    40    22    49 1   
    41    22    50 1   
    42    23    24 1   
    43    23    26 1   
    44    24    25 1   
    45    24    51 1   
    46    24    52 1   
    47    25    53 1   
    48    25    54 1   
    49    25    55 1   
    50    26    27 1   
    51    26    56 1   
    52    26    57 1   
    53    27    58 1   
    54    27    59 1   
    55    27    60 1   
    56    28    29 ar  
    57    28    34 ar  
    58    29    30 1   
    59    29    31 ar  
    60    31    32 ar  
    61    31    61 1   
    62    32    33 ar  
    63    32    62 1   
    64    33    34 ar  
    65    33    63 1   
    66    34    35 1   
@<TRIPOS>SUBSTRUCTURE
     1 LHL         1 TEMP              0 ****  ****    0 ROOT
