@<TRIPOS>MOLECULE
LHL
   63    66     1     0     0
SMALL
No Charge or Current Charge


@<TRIPOS>ATOM
      1 N1           0.0890     0.5710    -0.4910 nb         1 LHL      -0.253000
      2 C2          -0.0100    -0.6540     0.0530 ca         1 LHL       0.421900
      3 N2          -1.2570    -1.2570     0.1300 nu         1 LHL      -0.920900
      4 N3           0.9990    -1.4130     0.5030 nb         1 LHL      -0.301000
      5 C4           2.2390    -0.8860     0.4280 ca         1 LHL       0.310900
      6 C5           3.1010    -3.0050     1.4800 c3         1 LHL       0.100300
      7 N5           3.3480    -1.6640     0.8780 n          1 LHL      -0.389300
      8 C6           4.6800    -1.2350     0.6950 c          1 LHL       0.633000
      9 O6           5.6200    -1.9620     0.9930 o          1 LHL      -0.547000
     10 N7           4.9230     0.0460     0.1490 n          1 LHL      -0.243400
     11 C8           3.8370     0.9780    -0.2050 c6         1 LHL       0.197300
     12 C9           2.4480     0.3820    -0.1160 ca         1 LHL      -0.308300
     13 C10          1.3260     1.0920    -0.5710 ca         1 LHL       0.182900
     14 C21         -2.5720    -0.8340    -0.1050 ca         1 LHL       0.272000
     15 C22         -3.5410    -1.7980    -0.4390 ca         1 LHL      -0.108000
     16 C23         -4.8770    -1.4220    -0.6710 ca         1 LHL      -0.147500
     17 C24         -5.2650    -0.0780    -0.5640 ca         1 LHL       0.124100
     18 O24         -6.5870     0.2320    -0.8010 os         1 LHL      -0.351100
     19 C25         -4.3040     0.8950    -0.2140 ca         1 LHL      -0.147500
     20 C26         -2.9680     0.5140     0.0170 ca         1 LHL      -0.108000
     21 C27         -7.0960     1.5780    -0.6920 c3         1 LHL       0.161600
     22 C28         -8.6190     1.5800    -1.0010 c3         1 LHL       0.174800
     23 N28         -9.5380     1.2210     0.1270 n3         1 LHL      -0.730600
     24 C29        -10.9610     1.4950    -0.2130 c3         1 LHL       0.172800
     25 C30        -11.9430     1.3940     0.9730 c3         1 LHL      -0.107600
     26 C31         -9.2890    -0.1230     0.7280 c3         1 LHL       0.172800
     27 C32         -9.5820    -1.3280    -0.1930 c3         1 LHL      -0.107600
     28 C71          6.2610     0.5200    -0.0810 ca         1 LHL      -0.034000
     29 C72          6.8530     0.3930    -1.3580 ca         1 LHL       0.132500
     30 Cl72         5.9380    -0.2540    -2.7210 cl         1 LHL      -0.175000
     31 C73          8.1900     0.7740    -1.5630 ca         1 LHL      -0.101000
     32 C74          8.9590     1.2580    -0.4910 ca         1 LHL      -0.087000
     33 C75          8.3910     1.3460     0.7910 ca         1 LHL      -0.101000
     34 C76          7.0550     0.9650     1.0000 ca         1 LHL       0.132500
     35 Cl76         6.3790     1.0890     2.6250 cl         1 LHL      -0.175000
     36 HN2         -1.1770    -2.2510     0.3400 hn         1 LHL       0.509000
     37 H5           2.9040    -3.7350     0.6840 h1         1 LHL       0.055367
     38 H5A          3.9590    -3.3460     2.0710 h1         1 LHL       0.055367
     39 H5B          2.2350    -2.9670     2.1530 h1         1 LHL       0.055367
     40 H8           3.8920     1.8470     0.4670 h1         1 LHL       0.056200
     41 H8A          4.0010     1.3480    -1.2260 h1         1 LHL       0.056200
     42 H10          1.4150     2.0860    -1.0060 h4         1 LHL       0.023100
     43 H22         -3.2580    -2.8440    -0.5270 ha         1 LHL       0.129500
     44 H23         -5.6150    -2.1760    -0.9350 ha         1 LHL       0.122500
     45 H25         -4.5730     1.9420    -0.1110 ha         1 LHL       0.122500
     46 H26         -2.2510     1.2740     0.3100 ha         1 LHL       0.129500
     47 H27         -6.9260     1.9890     0.3110 h1         1 LHL       0.042200
     48 H27A        -6.5920     2.2250    -1.4200 h1         1 LHL       0.042200
     49 H28         -8.8610     2.5990    -1.3310 h1         1 LHL       0.040700
     50 H28A        -8.8020     0.9300    -1.8670 h1         1 LHL       0.040700
     51 H29        -11.0430     2.5160    -0.6100 h1         1 LHL       0.039450
     52 H29A       -11.3010     0.8220    -1.0110 h1         1 LHL       0.039450
     53 H30        -12.9350     1.7450     0.6680 hc         1 LHL       0.036533
     54 H30A       -12.0470     0.3590     1.3170 hc         1 LHL       0.036533
     55 H30B       -11.6030     2.0130     1.8110 hc         1 LHL       0.036533
     56 H31         -8.2470    -0.1940     1.0640 h1         1 LHL       0.039450
     57 H31A        -9.8910    -0.2410     1.6390 h1         1 LHL       0.039450
     58 H32         -8.9700    -1.2930    -1.1020 hc         1 LHL       0.036533
     59 H32A        -9.3500    -2.2620     0.3310 hc         1 LHL       0.036533
     60 H32B       -10.6380    -1.3590    -0.4830 hc         1 LHL       0.036533
     61 H73          8.6330     0.6850    -2.5520 ha         1 LHL       0.136000
     62 H74          9.9950     1.5510    -0.6510 ha         1 LHL       0.125000
     63 H75          8.9880     1.7060     1.6260 ha         1 LHL       0.136000
@<TRIPOS>BOND
     1     1     2 ar  
     2     1    13 ar  
     3     2     3 1   
     4     2     4 ar  
     5     3    14 1   
     6     3    36 1   
     7     4     5 ar  
     8     5     7 1   
     9     5    12 ar  
    10     6     7 1   
    11     6    37 1   
    12     6    38 1   
    13     6    39 1   
    14     7     8 1   
    15     8     9 2   
    16     8    10 1   
    17    10    11 1   
    18    10    28 1   
    19    11    12 1   
    20    11    40 1   
    21    11    41 1   
    22    12    13 ar  
    23    13    42 1   
    24    14    15 ar  
    25    14    20 ar  
    26    15    16 ar  
    27    15    43 1   
    28    16    17 ar  
    29    16    44 1   
    30    17    18 1   
    31    17    19 ar  
    32    18    21 1   
    33    19    20 ar  
    34    19    45 1   
    35    20    46 1   
    36    21    22 1   
    37    21    47 1   
    38    21    48 1   
    39    22    23 1   
    40    22    49 1   
    41    22    50 1   
    42    23    24 1   
    43    23    26 1   
    44    24    25 1   
    45    24    51 1   
    46    24    52 1   
    47    25    53 1   
    48    25    54 1   
    49    25    55 1   
    50    26    27 1   
    51    26    56 1   
    52    26    57 1   
    53    27    58 1   
    54    27    59 1   
    55    27    60 1   
    56    28    29 ar  
    57    28    34 ar  
    58    29    30 1   
    59    29    31 ar  
    60    31    32 ar  
    61    31    61 1   
    62    32    33 ar  
    63    32    62 1   
    64    33    34 ar  
    65    33    63 1   
    66    34    35 1   
@<TRIPOS>SUBSTRUCTURE
     1 LHL         1 TEMP              0 ****  ****    0 ROOT
