@<TRIPOS>MOLECULE
LHM
   36    38     1     0     0
SMALL
bcc


@<TRIPOS>ATOM
      1 N1          -0.5810    -0.5590     0.3790 ns         1 LHM      -0.573900
      2 N3           3.6370     1.0710     0.0110 na         1 LHM       0.111400
      3 C4          -2.9910    -0.7400     0.2080 ca         1 LHM      -0.129300
      4 C5          -1.7040    -1.4660     0.4890 c3         1 LHM       0.153300
      5 C6           0.6840    -0.9850     0.1900 c          1 LHM       0.722700
      6 C7           1.7110     0.0600     0.1350 cc         1 LHM      -0.358900
      7 C8           1.5780     1.4620     0.1960 cc         1 LHM       0.335200
      8 C10          5.8840     0.1480     0.1560 c6         1 LHM      -0.098400
      9 C13          3.0800    -0.1480     0.0040 cd         1 LHM      -0.003600
     10 C15         -5.1110     0.1530     0.9640 ca         1 LHM      -0.173000
     11 C1          -5.3480     0.6090    -0.3170 ca         1 LHM       0.141900
     12 C11          5.3270    -1.0620    -0.5800 c6         1 LHM      -0.083400
     13 C12          3.9120    -1.3820    -0.1050 c6         1 LHM      -0.022100
     14 C14         -3.9220    -0.5210     1.2160 ca         1 LHM      -0.088000
     15 C2          -4.4440     0.4150    -1.3460 ca         1 LHM      -0.173000
     16 C3          -3.2660    -0.2620    -1.0720 ca         1 LHM      -0.088000
     17 C9           5.0480     1.3800    -0.1410 c6         1 LHM       0.053300
     18 F1          -6.4920     1.2630    -0.5740 f          1 LHM      -0.142900
     19 N2           2.7450     2.0590     0.1180 nd         1 LHM      -0.525800
     20 O1           0.9570    -2.1750     0.0640 o          1 LHM      -0.626100
     21 H1          -0.7520     0.4090     0.5990 hn         1 LHM       0.315500
     22 H2          -1.5690    -2.2760    -0.2290 h1         1 LHM       0.059200
     23 H3          -1.7460    -1.9250     1.4820 h1         1 LHM       0.059200
     24 H4           0.6810     2.0580     0.2920 h4         1 LHM       0.035100
     25 H5           5.8960    -0.0430     1.2330 hc         1 LHM       0.057700
     26 H6           6.9130     0.3480    -0.1450 hc         1 LHM       0.057700
     27 H7          -5.8330     0.3210     1.7520 ha         1 LHM       0.151500
     28 H8           5.3220    -0.8640    -1.6560 hc         1 LHM       0.052700
     29 H9           5.9660    -1.9310    -0.4250 hc         1 LHM       0.052700
     30 H10          3.9470    -1.8640     0.8760 hc         1 LHM       0.080700
     31 H11          3.4250    -2.0910    -0.7720 hc         1 LHM       0.080700
     32 H12         -3.7230    -0.8790     2.2190 ha         1 LHM       0.139500
     33 H13         -4.6580     0.7830    -2.3410 ha         1 LHM       0.151500
     34 H14         -2.5530    -0.4210    -1.8720 ha         1 LHM       0.139500
     35 H15          5.2240     1.7250    -1.1630 h1         1 LHM       0.067700
     36 H16          5.2880     2.2000     0.5340 h1         1 LHM       0.067700
@<TRIPOS>BOND
     1     1     4 1   
     2     1     5 1   
     3     1    21 1   
     4     2     9 1   
     5     2    17 1   
     6     2    19 1   
     7     3     4 1   
     8     3    14 ar  
     9     3    16 ar  
    10     4    22 1   
    11     4    23 1   
    12     5     6 1   
    13     5    20 2   
    14     6     7 1   
    15     6     9 2   
    16     7    19 2   
    17     7    24 1   
    18     8    12 1   
    19     8    17 1   
    20     8    25 1   
    21     8    26 1   
    22     9    13 1   
    23    10    11 ar  
    24    10    14 ar  
    25    10    27 1   
    26    11    15 ar  
    27    11    18 1   
    28    12    13 1   
    29    12    28 1   
    30    12    29 1   
    31    13    30 1   
    32    13    31 1   
    33    14    32 1   
    34    15    16 ar  
    35    15    33 1   
    36    16    34 1   
    37    17    35 1   
    38    17    36 1   
@<TRIPOS>SUBSTRUCTURE
     1 LHM         1 TEMP              0 ****  ****    0 ROOT
