@<TRIPOS>MOLECULE
LHM
   36    38     1     0     0
SMALL
No Charge or Current Charge


@<TRIPOS>ATOM
      1 N1          -0.5610    -0.6970     0.0190 ns         1 LHM      -0.506900
      2 N3           3.5730     1.1250    -0.0280 na         1 LHM       0.132800
      3 C4          -3.0130    -0.7530     0.0320 ca         1 LHM      -0.129300
      4 C5          -1.7300    -1.5690     0.0490 c3         1 LHM       0.153300
      5 C6           0.7370    -1.1430     0.0260 c          1 LHM       0.655700
      6 C7           1.7420    -0.0630    -0.0080 cc         1 LHM      -0.293600
      7 C8           1.4810     1.3180    -0.0350 cc         1 LHM       0.269900
      8 C10          5.8820     0.2620     0.3870 c6         1 LHM      -0.098400
      9 C13          3.1030    -0.1880    -0.0120 cd         1 LHM      -0.054300
     10 C15         -4.7850     0.4240     1.2260 ca         1 LHM      -0.155000
     11 C1          -5.3800     0.7660     0.0020 ca         1 LHM       0.177000
     12 C11          5.4450    -1.0580    -0.3120 c6         1 LHM      -0.083400
     13 C12          3.9740    -1.4270     0.0290 c6         1 LHM      -0.022100
     14 C14         -3.6020    -0.3350     1.2430 ca         1 LHM      -0.070000
     15 C2          -4.7980     0.3560    -1.2070 ca         1 LHM      -0.155000
     16 C3          -3.6140    -0.4040    -1.1930 ca         1 LHM      -0.070000
     17 C9           5.0100     1.4700    -0.0620 c6         1 LHM       0.082600
     18 F1          -6.5160     1.4960    -0.0130 f          1 LHM      -0.178000
     19 N2           2.5620     2.0740    -0.0510 nd         1 LHM      -0.525800
     20 O1           1.0070    -2.3350     0.0590 o          1 LHM      -0.626100
     21 H1          -0.7090     0.3020    -0.0090 hn         1 LHM       0.315500
     22 H2          -1.7010    -2.2380    -0.8220 h1         1 LHM       0.059200
     23 H3          -1.6920    -2.1890     0.9550 h1         1 LHM       0.059200
     24 H4           0.5160     1.8080    -0.0410 h4         1 LHM       0.035100
     25 H5           5.8040     0.1400     1.4760 hc         1 LHM       0.057700
     26 H6           6.9390     0.4710     0.1730 hc         1 LHM       0.057700
     27 H7          -5.2410     0.7480     2.1580 ha         1 LHM       0.133500
     28 H8           5.5500    -0.9440    -1.4000 hc         1 LHM       0.052700
     29 H9           6.1120    -1.8810    -0.0210 hc         1 LHM       0.052700
     30 H10          3.9290    -1.8770     1.0300 hc         1 LHM       0.080700
     31 H11          3.6130    -2.1890    -0.6740 hc         1 LHM       0.080700
     32 H12         -3.1420    -0.5960     2.1940 ha         1 LHM       0.121500
     33 H13         -5.2640     0.6260    -2.1520 ha         1 LHM       0.133500
     34 H14         -3.1650    -0.7180    -2.1330 ha         1 LHM       0.121500
     35 H15          5.2700     1.7530    -1.0910 h1         1 LHM       0.067700
     36 H16          5.1970     2.3360     0.5870 h1         1 LHM       0.067700
@<TRIPOS>BOND
     1     1     4 1   
     2     1     5 1   
     3     1    21 1   
     4     2     9 1   
     5     2    17 1   
     6     2    19 1   
     7     3     4 1   
     8     3    14 ar  
     9     3    16 ar  
    10     4    22 1   
    11     4    23 1   
    12     5     6 1   
    13     5    20 2   
    14     6     7 1   
    15     6     9 2   
    16     7    19 2   
    17     7    24 1   
    18     8    12 1   
    19     8    17 1   
    20     8    25 1   
    21     8    26 1   
    22     9    13 1   
    23    10    11 ar  
    24    10    14 ar  
    25    10    27 1   
    26    11    15 ar  
    27    11    18 1   
    28    12    13 1   
    29    12    28 1   
    30    12    29 1   
    31    13    30 1   
    32    13    31 1   
    33    14    32 1   
    34    15    16 ar  
    35    15    33 1   
    36    16    34 1   
    37    17    35 1   
    38    17    36 1   
@<TRIPOS>SUBSTRUCTURE
     1 LHM         1 TEMP              0 ****  ****    0 ROOT
