@<TRIPOS>MOLECULE
LHP
   74    77     1     0     0
SMALL
No Charge or Current Charge


@<TRIPOS>ATOM
      1 O3          -5.1850     1.3710    -0.3190 os         1 LHP      -0.455100
      2 C1          -3.3300    -0.9900     2.0480 c6         1 LHP      -0.068400
      3 C2          -3.8850     0.3520     1.5110 c6         1 LHP      -0.096400
      4 C3          -4.7180     0.1210     0.2250 c6         1 LHP       0.179300
      5 C4          -3.8720    -0.6120    -0.8390 c6         1 LHP      -0.076400
      6 C5          -3.2810    -1.9570    -0.3040 c6         1 LHP      -0.046700
      7 C6          -2.4580    -2.6750    -1.4140 c6         1 LHP      -0.068400
      8 C7          -1.1280    -1.9480    -1.7280 c6         1 LHP      -0.072400
      9 C8          -0.2650    -1.7330    -0.4530 c6         1 LHP      -0.043700
     10 C9          -1.0860    -1.0070     0.6760 c6         1 LHP      -0.045700
     11 C10         -2.4390    -1.7720     1.0180 c6         1 LHP      -0.031000
     12 C11         -0.1780    -0.7240     1.9200 c6         1 LHP      -0.070400
     13 C12          1.1250     0.0460     1.5540 c6         1 LHP      -0.062400
     14 C13          1.9640    -0.6840     0.4540 c5         1 LHP      -0.039000
     15 C14          1.0160    -0.9070    -0.7720 c5         1 LHP      -0.067700
     16 C15          1.9820    -1.4690    -1.8440 c5         1 LHP      -0.072400
     17 C16          3.2760    -0.6270    -1.6230 c5         1 LHP      -0.076400
     18 C17          3.0530     0.1920    -0.2930 c5         1 LHP      -0.048700
     19 C18          2.5720    -1.9880     1.0780 c3         1 LHP      -0.074100
     20 C19         -2.1520    -3.1750     1.6630 c3         1 LHP      -0.082100
     21 C20          4.4010     0.5590     0.4370 c3         1 LHP      -0.055700
     22 C21          4.1980     1.2460     1.8130 c3         1 LHP      -0.081100
     23 C22          5.3280     1.4160    -0.4870 c3         1 LHP      -0.059400
     24 C23          6.7680     1.6740     0.0400 c3         1 LHP      -0.206400
     25 C24          7.6480     2.2590    -1.0810 c          1 LHP       0.716000
     26 C26         -6.2040     2.0670     0.2760 c          1 LHP       0.596100
     27 C27         -6.4950     3.3810    -0.4540 c3         1 LHP      -0.140400
     28 C28         -7.6260     3.2110    -1.4910 c3         1 LHP      -0.080100
     29 OT1          8.2510     1.4820    -1.8060 o          1 LHP      -0.743000
     30 OT2          7.6690     3.4720    -1.2240 o          1 LHP      -0.743000
     31 O25         -6.8260     1.6860     1.2580 o          1 LHP      -0.497000
     32 H3          -4.5090     0.8140     2.2860 hc         1 LHP       0.055700
     33 H4          -3.0680     1.0580     1.3140 hc         1 LHP       0.055700
     34 H5          -5.5890    -0.5090     0.4640 h1         1 LHP       0.057700
     35 H6          -4.5030    -0.8140    -1.7150 hc         1 LHP       0.053200
     36 H7          -3.0790     0.0610    -1.1880 hc         1 LHP       0.053200
     37 H8          -4.1390    -2.6050    -0.0710 hc         1 LHP       0.038700
     38 H9          -2.2470    -3.7110    -1.1170 hc         1 LHP       0.036200
     39 H10         -3.0580    -2.7520    -2.3310 hc         1 LHP       0.036200
     40 H11         -0.5680    -2.5440    -2.4610 hc         1 LHP       0.040200
     41 H12         -1.3310    -0.9850    -2.2150 hc         1 LHP       0.040200
     42 H13          0.0520    -2.7200    -0.0970 hc         1 LHP       0.047700
     43 H14         -1.3500    -0.0200     0.2760 hc         1 LHP       0.045700
     44 H15         -0.7210    -0.1180     2.6550 hc         1 LHP       0.033200
     45 H16          0.0810    -1.6570     2.4340 hc         1 LHP       0.033200
     46 H17          0.8580     1.0560     1.2130 hc         1 LHP       0.041700
     47 H18          1.7060     0.1750     2.4720 hc         1 LHP       0.041700
     48 H19          0.6270     0.0570    -1.1260 hc         1 LHP       0.041700
     49 H20          2.1690    -2.5400    -1.7050 hc         1 LHP       0.032200
     50 H21          1.5860    -1.3460    -2.8590 hc         1 LHP       0.032200
     51 H22          4.1500    -1.2860    -1.5560 hc         1 LHP       0.051700
     52 H23          3.4580     0.0440    -2.4710 hc         1 LHP       0.051700
     53 H24          2.6050     1.1600    -0.5500 hc         1 LHP       0.041700
     54 H25          1.8050    -2.7070     1.3810 hc         1 LHP       0.029367
     55 H26          3.2440    -2.5140     0.3910 hc         1 LHP       0.029367
     56 H27          3.1620    -1.7560     1.9720 hc         1 LHP       0.029367
     57 H28         -3.0810    -3.7400     1.8060 hc         1 LHP       0.032033
     58 H29         -1.4930    -3.8050     1.0580 hc         1 LHP       0.032033
     59 H30         -1.6900    -3.0810     2.6520 hc         1 LHP       0.032033
     60 H31          4.9390    -0.3760     0.6350 hc         1 LHP       0.036700
     61 H32          3.8160     0.5320     2.5480 hc         1 LHP       0.024367
     62 H33          5.1390     1.6160     2.2310 hc         1 LHP       0.024367
     63 H34          3.5030     2.0900     1.7350 hc         1 LHP       0.024367
     64 H35          5.4300     0.9130    -1.4550 hc         1 LHP       0.040700
     65 H36          4.8420     2.3770    -0.6940 hc         1 LHP       0.040700
     66 H37          6.6780     2.4020     0.8540 hc         1 LHP       0.016200
     67 H38          7.1560     0.6970     0.3560 hc         1 LHP       0.016200
     68 H39         -6.7920     4.1430     0.2750 hc         1 LHP       0.070200
     69 H40         -5.5980     3.6970    -1.0000 hc         1 LHP       0.070200
     70 H41         -7.3560     2.4570    -2.2400 hc         1 LHP       0.041033
     71 H42         -8.5560     2.8950    -1.0020 hc         1 LHP       0.041033
     72 H43         -7.8170     4.1580    -2.0100 hc         1 LHP       0.041033
     73 H1          -2.7910    -0.8170     2.9880 hc         1 LHP       0.041200
     74 H2          -4.1870    -1.6180     2.3300 hc         1 LHP       0.041200
@<TRIPOS>BOND
     1     1     4 1   
     2     1    26 1   
     3     2     3 1   
     4     2    11 1   
     5     2    73 1   
     6     2    74 1   
     7     3     4 1   
     8     3    32 1   
     9     3    33 1   
    10     4     5 1   
    11     4    34 1   
    12     5     6 1   
    13     5    35 1   
    14     5    36 1   
    15     6     7 1   
    16     6    11 1   
    17     6    37 1   
    18     7     8 1   
    19     7    38 1   
    20     7    39 1   
    21     8     9 1   
    22     8    40 1   
    23     8    41 1   
    24     9    10 1   
    25     9    15 1   
    26     9    42 1   
    27    10    11 1   
    28    10    12 1   
    29    10    43 1   
    30    11    20 1   
    31    12    13 1   
    32    12    44 1   
    33    12    45 1   
    34    13    14 1   
    35    13    46 1   
    36    13    47 1   
    37    14    15 1   
    38    14    18 1   
    39    14    19 1   
    40    15    16 1   
    41    15    48 1   
    42    16    17 1   
    43    16    49 1   
    44    16    50 1   
    45    17    18 1   
    46    17    51 1   
    47    17    52 1   
    48    18    21 1   
    49    18    53 1   
    50    19    54 1   
    51    19    55 1   
    52    19    56 1   
    53    20    57 1   
    54    20    58 1   
    55    20    59 1   
    56    21    22 1   
    57    21    23 1   
    58    21    60 1   
    59    22    61 1   
    60    22    62 1   
    61    22    63 1   
    62    23    24 1   
    63    23    64 1   
    64    23    65 1   
    65    24    25 1   
    66    24    66 1   
    67    24    67 1   
    68    25    29 1   
    69    25    30 1   
    70    26    27 1   
    71    26    31 2   
    72    27    28 1   
    73    27    68 1   
    74    27    69 1   
    75    28    70 1   
    76    28    71 1   
    77    28    72 1   
@<TRIPOS>SUBSTRUCTURE
     1 LHP         1 TEMP              0 ****  ****    0 ROOT
