@<TRIPOS>MOLECULE
LHP
   74    77     1     0     0
SMALL
bcc


@<TRIPOS>ATOM
      1 O3          -5.1290     1.1730    -0.6340 os         1 LHP      -0.431900
      2 C1          -3.2540    -0.8650     1.9150 c6         1 LHP      -0.068400
      3 C2          -3.8110     0.4000     1.2740 c6         1 LHP      -0.096400
      4 C3          -4.6250     0.0120     0.0540 c6         1 LHP       0.156100
      5 C4          -3.7810    -0.7640    -0.9370 c6         1 LHP      -0.076400
      6 C5          -3.1630    -2.0160    -0.3010 c6         1 LHP      -0.046700
      7 C6          -2.3200    -2.7720    -1.3290 c6         1 LHP      -0.068400
      8 C7          -1.0300    -2.0360    -1.6710 c6         1 LHP      -0.072400
      9 C8          -0.2090    -1.7250    -0.4240 c6         1 LHP      -0.043700
     10 C9          -1.0530    -0.9590     0.6150 c6         1 LHP      -0.045700
     11 C10         -2.3600    -1.7080     0.9880 c6         1 LHP      -0.031000
     12 C11         -0.2050    -0.5490     1.8230 c6         1 LHP      -0.070400
     13 C12          1.0670     0.2130     1.4410 c6         1 LHP      -0.062400
     14 C13          1.9250    -0.5750     0.4500 c5         1 LHP      -0.039000
     15 C14          1.0210    -0.8920    -0.7560 c5         1 LHP      -0.067700
     16 C15          1.9830    -1.3960    -1.8240 c5         1 LHP      -0.072400
     17 C16          3.2570    -0.5610    -1.5880 c5         1 LHP      -0.076400
     18 C17          3.0530     0.2160    -0.2590 c5         1 LHP      -0.048700
     19 C18          2.4900    -1.8410     1.1000 c3         1 LHP      -0.074100
     20 C19         -2.0680    -3.0130     1.7350 c3         1 LHP      -0.082100
     21 C20          4.3760     0.4770     0.4770 c3         1 LHP      -0.055700
     22 C21          4.1820     1.1750     1.8200 c3         1 LHP      -0.081100
     23 C22          5.3130     1.2860    -0.4310 c3         1 LHP      -0.059400
     24 C23          6.6930     1.5630     0.1480 c3         1 LHP      -0.206400
     25 C24          7.7140     2.1810    -0.8270 c          1 LHP       0.926600
     26 C26         -6.2650     1.7290    -0.2300 c          1 LHP       0.645100
     27 C27         -6.6280     2.9140    -1.0860 c3         1 LHP      -0.140400
     28 C28         -7.9590     3.5410    -0.7150 c3         1 LHP      -0.080100
     29 OT1          7.4300     2.2030    -2.0410 o          1 LHP      -0.848300
     30 OT2          8.7710     2.6050    -0.3110 o          1 LHP      -0.848300
     31 O25         -6.9170     1.3300     0.7030 o          1 LHP      -0.546000
     32 H3          -4.4320     0.9340     1.9970 hc         1 LHP       0.055700
     33 H4          -3.0040     1.0810     0.9860 hc         1 LHP       0.055700
     34 H5          -5.4700    -0.6060     0.3720 h1         1 LHP       0.057700
     35 H6          -4.3980    -1.0740    -1.7850 hc         1 LHP       0.053200
     36 H7          -3.0060    -0.1080    -1.3420 hc         1 LHP       0.053200
     37 H8          -3.9970    -2.6680    -0.0100 hc         1 LHP       0.038700
     38 H9          -2.0740    -3.7650    -0.9430 hc         1 LHP       0.036200
     39 H10         -2.9110    -2.9390    -2.2340 hc         1 LHP       0.036200
     40 H11         -0.4390    -2.6360    -2.3680 hc         1 LHP       0.040200
     41 H12         -1.2590    -1.1000    -2.1950 hc         1 LHP       0.040200
     42 H13          0.1180    -2.6810     0.0050 hc         1 LHP       0.047700
     43 H14         -1.3440    -0.0210     0.1200 hc         1 LHP       0.045700
     44 H15         -0.7920     0.0850     2.4930 hc         1 LHP       0.033200
     45 H16          0.0680    -1.4300     2.4110 hc         1 LHP       0.033200
     46 H17          0.7920     1.1670     0.9750 hc         1 LHP       0.041700
     47 H18          1.6120     0.4640     2.3520 hc         1 LHP       0.041700
     48 H19          0.6430     0.0830    -1.1060 hc         1 LHP       0.041700
     49 H20          2.1790    -2.4650    -1.7000 hc         1 LHP       0.032200
     50 H21          1.5880    -1.2690    -2.8340 hc         1 LHP       0.032200
     51 H22          4.1430    -1.2000    -1.5280 hc         1 LHP       0.051700
     52 H23          3.4370     0.1270    -2.4150 hc         1 LHP       0.051700
     53 H24          2.6280     1.2000    -0.5050 hc         1 LHP       0.041700
     54 H25          1.7100    -2.4790     1.5130 hc         1 LHP       0.029367
     55 H26          3.0610    -2.4470     0.3950 hc         1 LHP       0.029367
     56 H27          3.1620    -1.5900     1.9220 hc         1 LHP       0.029367
     57 H28         -3.0000    -3.5490     1.9290 hc         1 LHP       0.032033
     58 H29         -1.4100    -3.6910     1.1930 hc         1 LHP       0.032033
     59 H30         -1.6070    -2.8190     2.7050 hc         1 LHP       0.032033
     60 H31          4.8600    -0.4910     0.6680 hc         1 LHP       0.036700
     61 H32          3.6330     0.5600     2.5310 hc         1 LHP       0.024367
     62 H33          5.1390     1.4120     2.2860 hc         1 LHP       0.024367
     63 H34          3.6350     2.1150     1.7010 hc         1 LHP       0.024367
     64 H35          5.4460     0.7570    -1.3750 hc         1 LHP       0.040700
     65 H36          4.8220     2.2330    -0.6870 hc         1 LHP       0.040700
     66 H37          6.6290     2.2190     1.0200 hc         1 LHP       0.016200
     67 H38          7.1210     0.6260     0.5290 hc         1 LHP       0.016200
     68 H39         -5.8200     3.6470    -1.0080 hc         1 LHP       0.070200
     69 H40         -6.6290     2.5940    -2.1310 hc         1 LHP       0.070200
     70 H41         -8.7800     2.8310    -0.8140 hc         1 LHP       0.041033
     71 H42         -7.9580     3.9130     0.3090 hc         1 LHP       0.041033
     72 H43         -8.1710     4.3840    -1.3720 hc         1 LHP       0.041033
     73 H1          -2.7210    -0.6130     2.8340 hc         1 LHP       0.041200
     74 H2          -4.1000    -1.4880     2.2300 hc         1 LHP       0.041200
@<TRIPOS>BOND
     1     1     4 1   
     2     1    26 1   
     3     2     3 1   
     4     2    11 1   
     5     2    73 1   
     6     2    74 1   
     7     3     4 1   
     8     3    32 1   
     9     3    33 1   
    10     4     5 1   
    11     4    34 1   
    12     5     6 1   
    13     5    35 1   
    14     5    36 1   
    15     6     7 1   
    16     6    11 1   
    17     6    37 1   
    18     7     8 1   
    19     7    38 1   
    20     7    39 1   
    21     8     9 1   
    22     8    40 1   
    23     8    41 1   
    24     9    10 1   
    25     9    15 1   
    26     9    42 1   
    27    10    11 1   
    28    10    12 1   
    29    10    43 1   
    30    11    20 1   
    31    12    13 1   
    32    12    44 1   
    33    12    45 1   
    34    13    14 1   
    35    13    46 1   
    36    13    47 1   
    37    14    15 1   
    38    14    18 1   
    39    14    19 1   
    40    15    16 1   
    41    15    48 1   
    42    16    17 1   
    43    16    49 1   
    44    16    50 1   
    45    17    18 1   
    46    17    51 1   
    47    17    52 1   
    48    18    21 1   
    49    18    53 1   
    50    19    54 1   
    51    19    55 1   
    52    19    56 1   
    53    20    57 1   
    54    20    58 1   
    55    20    59 1   
    56    21    22 1   
    57    21    23 1   
    58    21    60 1   
    59    22    61 1   
    60    22    62 1   
    61    22    63 1   
    62    23    24 1   
    63    23    64 1   
    64    23    65 1   
    65    24    25 1   
    66    24    66 1   
    67    24    67 1   
    68    25    29 1   
    69    25    30 1   
    70    26    27 1   
    71    26    31 2   
    72    27    28 1   
    73    27    68 1   
    74    27    69 1   
    75    28    70 1   
    76    28    71 1   
    77    28    72 1   
@<TRIPOS>SUBSTRUCTURE
     1 LHP         1 TEMP              0 ****  ****    0 ROOT
