@<TRIPOS>MOLECULE
LHR
   22    23     1     0     0
SMALL
bcc


@<TRIPOS>ATOM
      1 N1          56.8830    18.7870    84.0090 ns         1 LHR      -0.477100
      2 N3          57.0880    20.8150    88.5010 na         1 LHR      -0.013100
      3 C4          56.2660    17.6970    86.0360 ca         1 LHR      -0.217000
      4 C5          56.0870    17.6300    87.3930 ca         1 LHR      -0.023000
      5 C6          56.3980    18.7560    88.1660 ca         1 LHR      -0.260900
      6 C7          56.3650    19.1120    89.5400 cc         1 LHR       0.361800
      7 C8          56.8790    19.9070    87.5210 ca         1 LHR      -0.011200
      8 C1          57.2860    19.2560    81.6880 c3         1 LHR      -0.184100
      9 C2          57.3060    19.7290    83.1210 c          1 LHR       0.675100
     10 O1          57.6600    20.8480    83.4420 o          1 LHR      -0.576100
     11 C3          56.7550    18.8700    85.3970 ca         1 LHR       0.106600
     12 N2          56.7790    20.3420    89.7130 nd         1 LHR      -0.519100
     13 C9          57.0700    19.9960    86.1380 ca         1 LHR      -0.183000
     14 H1          56.6170    17.8980    83.6110 hn         1 LHR       0.316500
     15 H2          57.4300    21.7580    88.4050 hn         1 LHR       0.326700
     16 H3          56.0280    16.8320    85.4270 ha         1 LHR       0.126000
     17 H4          55.7130    16.7230    87.8490 ha         1 LHR       0.137000
     18 H5          56.0540    18.5120    90.3820 h4         1 LHR       0.047800
     19 H6          57.6820    20.0290    81.0350 hc         1 LHR       0.065033
     20 H7          57.8810    18.3500    81.5660 hc         1 LHR       0.065033
     21 H8          56.2670    19.0220    81.3750 hc         1 LHR       0.065033
     22 H9          57.4420    20.8990    85.6840 ha         1 LHR       0.173000
@<TRIPOS>BOND
     1     1     9 1   
     2     1    11 1   
     3     1    14 1   
     4     2     7 1   
     5     2    12 1   
     6     2    15 1   
     7     3     4 ar  
     8     3    11 ar  
     9     3    16 1   
    10     4     5 ar  
    11     4    17 1   
    12     5     6 1   
    13     5     7 ar  
    14     6    12 2   
    15     6    18 1   
    16     7    13 ar  
    17     8     9 1   
    18     8    19 1   
    19     8    20 1   
    20     8    21 1   
    21     9    10 2   
    22    11    13 ar  
    23    13    22 1   
@<TRIPOS>SUBSTRUCTURE
     1 LHR         1 TEMP              0 ****  ****    0 ROOT
