@<TRIPOS>MOLECULE
LHR
   22    23     1     0     0
SMALL
No Charge or Current Charge


@<TRIPOS>ATOM
      1 N1          56.8840    18.8190    83.9780 ns         1 LHR      -0.151000
      2 N3          57.0930    20.8320    88.5600 na         1 LHR      -0.063400
      3 C4          56.2530    17.6890    86.0290 ca         1 LHR      -0.199000
      4 C5          56.0780    17.6360    87.4290 ca         1 LHR      -0.005000
      5 C6          56.4060    18.7820    88.1580 ca         1 LHR      -0.260900
      6 C7          56.3540    19.0750    89.5680 cc         1 LHR       0.361800
      7 C8          56.8740    19.9070    87.5620 ca         1 LHR      -0.011200
      8 C1          57.3060    19.2650    81.6110 c3         1 LHR      -0.184100
      9 C2          57.3220    19.7590    83.0550 c          1 LHR       0.608100
     10 O1          57.6950    20.8920    83.3360 o          1 LHR      -0.576100
     11 C3          56.7410    18.8590    85.3910 ca         1 LHR       0.014000
     12 N2          56.7720    20.3260    89.8300 nd         1 LHR      -0.519100
     13 C9          57.0600    19.9970    86.1770 ca         1 LHR      -0.165000
     14 H1          56.6140    17.9350    83.5670 hn         1 LHR       0.150000
     15 H2          57.4450    21.7800    88.4350 hn         1 LHR       0.377000
     16 H3          56.0060    16.8120    85.4340 ha         1 LHR       0.108000
     17 H4          55.7040    16.7380    87.9190 ha         1 LHR       0.119000
     18 H5          56.0440    18.4660    90.4070 h4         1 LHR       0.047800
     19 H6          57.6560    20.0230    80.9010 hc         1 LHR       0.065033
     20 H7          57.8950    18.3430    81.5430 hc         1 LHR       0.065033
     21 H8          56.2970    18.9140    81.3650 hc         1 LHR       0.065033
     22 H9          57.4370    20.9190    85.7460 ha         1 LHR       0.155000
@<TRIPOS>BOND
     1     1     9 1   
     2     1    11 1   
     3     1    14 1   
     4     2     7 1   
     5     2    12 1   
     6     2    15 1   
     7     3     4 ar  
     8     3    11 ar  
     9     3    16 1   
    10     4     5 ar  
    11     4    17 1   
    12     5     6 1   
    13     5     7 ar  
    14     6    12 2   
    15     6    18 1   
    16     7    13 ar  
    17     8     9 1   
    18     8    19 1   
    19     8    20 1   
    20     8    21 1   
    21     9    10 2   
    22    11    13 ar  
    23    13    22 1   
@<TRIPOS>SUBSTRUCTURE
     1 LHR         1 TEMP              0 ****  ****    0 ROOT
