@<TRIPOS>MOLECULE
LHS
   31    32     1     0     0
SMALL
No Charge or Current Charge


@<TRIPOS>ATOM
      1 N1           2.7840    -0.8350    -0.4600 nc         1 LHS      -0.669000
      2 N3          -0.6600    -1.4240     0.8620 ns         1 LHS      -0.495900
      3 C4           1.6700    -0.8690     0.3520 cc         1 LHS       0.501500
      4 C5           0.3490    -1.4800    -0.0920 c          1 LHS       0.535600
      5 C6          -2.0250    -1.9120     0.6690 c3         1 LHS       0.160300
      6 C7          -2.9400    -0.8030     0.1710 ca         1 LHS      -0.136300
      7 C8          -3.6140     0.0270     1.0900 ca         1 LHS      -0.061000
      8 C10         -4.6240     1.2530    -0.7510 ca         1 LHS       0.179000
      9 C1           6.6050     1.8850    -0.6760 c3         1 LHS       0.144900
     10 C11         -3.9550     0.4330    -1.6720 ca         1 LHS      -0.155500
     11 C12         -3.1130    -0.5950    -1.2130 ca         1 LHS      -0.061000
     12 C2           5.1020     0.0780    -0.0660 c3         1 LHS       0.126300
     13 C3           3.6670    -0.2310     0.3090 cd         1 LHS       0.474300
     14 C9          -4.4560     1.0540     0.6270 ca         1 LHS      -0.155500
     15 F1          -5.4320     2.2400    -1.1940 f          1 LHS      -0.179000
     16 N2           1.8390    -0.3280     1.5590 nd         1 LHS      -0.377300
     17 O1           5.2700     1.4950    -0.3100 os         1 LHS      -0.439000
     18 O2           3.1850     0.1030     1.5360 os         1 LHS      -0.050700
     19 O3           0.1460    -1.9910    -1.1930 o          1 LHS      -0.551100
     20 H1          -0.4240    -0.9850     1.7470 hn         1 LHS       0.336500
     21 H2          -2.0250    -2.7490    -0.0430 h1         1 LHS       0.061200
     22 H3          -2.3990    -2.2970     1.6270 h1         1 LHS       0.061200
     23 H4          -3.4850    -0.1230     2.1600 ha         1 LHS       0.120500
     24 H5           7.3180     1.6320     0.1200 h1         1 LHS       0.038367
     25 H6           6.9210     1.3820    -1.5990 h1         1 LHS       0.038367
     26 H7           6.6530     2.9690    -0.8440 h1         1 LHS       0.038367
     27 H8          -4.0890     0.5950    -2.7390 ha         1 LHS       0.133500
     28 H9          -2.5930    -1.2270    -1.9300 ha         1 LHS       0.120500
     29 H10          5.7520    -0.2540     0.7540 h1         1 LHS       0.063200
     30 H11          5.3640    -0.5030    -0.9590 h1         1 LHS       0.063200
     31 H12         -4.9770     1.6940     1.3340 ha         1 LHS       0.133500
@<TRIPOS>BOND
     1     1     3 1   
     2     1    13 2   
     3     2     4 1   
     4     2     5 1   
     5     2    20 1   
     6     3     4 1   
     7     3    16 2   
     8     4    19 2   
     9     5     6 1   
    10     5    21 1   
    11     5    22 1   
    12     6     7 ar  
    13     6    11 ar  
    14     7    14 ar  
    15     7    23 1   
    16     8    10 ar  
    17     8    14 ar  
    18     8    15 1   
    19     9    17 1   
    20     9    24 1   
    21     9    25 1   
    22     9    26 1   
    23    10    11 ar  
    24    10    27 1   
    25    11    28 1   
    26    12    13 1   
    27    12    17 1   
    28    12    29 1   
    29    12    30 1   
    30    13    18 1   
    31    14    31 1   
    32    16    18 1   
@<TRIPOS>SUBSTRUCTURE
     1 LHS         1 TEMP              0 ****  ****    0 ROOT
