@<TRIPOS>MOLECULE
LHS
   31    32     1     0     0
SMALL
bcc


@<TRIPOS>ATOM
      1 N1           2.5450    -0.5460    -0.6860 nc         1 LHS      -0.669000
      2 N3          -0.5900    -1.3310     1.0130 ns         1 LHS      -0.562900
      3 C4           1.5870    -0.6800     0.2670 cc         1 LHS       0.501500
      4 C5           0.2360    -1.2480    -0.0330 c          1 LHS       0.602600
      5 C6          -1.9450    -1.8290     0.8830 c3         1 LHS       0.160300
      6 C7          -2.8770    -0.8310     0.2420 ca         1 LHS      -0.136300
      7 C8          -3.3140     0.2820     0.9560 ca         1 LHS      -0.079000
      8 C10         -4.5710     1.0150    -0.9260 ca         1 LHS       0.143900
      9 C1           6.7330     1.6460    -0.0900 c3         1 LHS       0.121700
     10 C11         -4.1600    -0.0760    -1.6650 ca         1 LHS      -0.173500
     11 C12         -3.3060    -0.9950    -1.0690 ca         1 LHS      -0.079000
     12 C2           4.8810     0.3040    -0.5160 c3         1 LHS       0.103100
     13 C3           3.5210    -0.0310    -0.0210 cd         1 LHS       0.518700
     14 C9          -4.1630     1.2140     0.3800 ca         1 LHS      -0.173500
     15 F1          -5.3980     1.9110    -1.4910 f          1 LHS      -0.143900
     16 N2           1.9470    -0.2660     1.4400 nd         1 LHS      -0.377300
     17 O1           5.4070     1.3280     0.2680 os         1 LHS      -0.392600
     18 O2           3.2240     0.1600     1.2580 os         1 LHS      -0.095100
     19 O3          -0.0320    -1.6020    -1.1660 o          1 LHS      -0.551100
     20 H1          -0.2860    -0.9980     1.9150 hn         1 LHS       0.336500
     21 H2          -1.9370    -2.7580     0.3120 h1         1 LHS       0.061200
     22 H3          -2.2860    -2.0720     1.8880 h1         1 LHS       0.061200
     23 H4          -2.9950     0.4270     1.9810 ha         1 LHS       0.138500
     24 H5           7.4020     0.7880     0.0330 h1         1 LHS       0.038367
     25 H6           6.8030     1.9900    -1.1280 h1         1 LHS       0.038367
     26 H7           7.0680     2.4470     0.5660 h1         1 LHS       0.038367
     27 H8          -4.4940    -0.2080    -2.6860 ha         1 LHS       0.151500
     28 H9          -2.9710    -1.8520    -1.6400 ha         1 LHS       0.138500
     29 H10          5.4950    -0.6080    -0.4720 h1         1 LHS       0.063200
     30 H11          4.7990     0.5750    -1.5760 h1         1 LHS       0.063200
     31 H12         -4.5080     2.0760     0.9370 ha         1 LHS       0.151500
@<TRIPOS>BOND
     1     1     3 1   
     2     1    13 2   
     3     2     4 1   
     4     2     5 1   
     5     2    20 1   
     6     3     4 1   
     7     3    16 2   
     8     4    19 2   
     9     5     6 1   
    10     5    21 1   
    11     5    22 1   
    12     6     7 ar  
    13     6    11 ar  
    14     7    14 ar  
    15     7    23 1   
    16     8    10 ar  
    17     8    14 ar  
    18     8    15 1   
    19     9    17 1   
    20     9    24 1   
    21     9    25 1   
    22     9    26 1   
    23    10    11 ar  
    24    10    27 1   
    25    11    28 1   
    26    12    13 1   
    27    12    17 1   
    28    12    29 1   
    29    12    30 1   
    30    13    18 1   
    31    14    31 1   
    32    16    18 1   
@<TRIPOS>SUBSTRUCTURE
     1 LHS         1 TEMP              0 ****  ****    0 ROOT
