@<TRIPOS>MOLECULE
LHV
   17    16     1     0     0
SMALL
abcg2


@<TRIPOS>ATOM
      1 C           -1.3390     0.0840     0.0230 c          1 LHV       0.691000
      2 CB           1.1840    -0.2660     0.3510 c3         1 LHV      -0.062700
      3 CG2          2.5610     0.3070     0.0210 c3         1 LHV      -0.075100
      4 CA           0.0860     0.4860    -0.4240 c3         1 LHV       0.027300
      5 OE           0.2190     1.8790    -0.2560 oh         1 LHV      -0.716000
      6 O           -1.9300     0.9550     0.7070 o          1 LHV      -0.725000
      7 OXT         -1.7820    -1.0240    -0.3140 o          1 LHV      -0.725000
      8 H1           1.3300    -1.9640    -0.9920 hc         1 LHV       0.019367
      9 H2           2.0020    -2.2500     0.6100 hc         1 LHV       0.019367
     10 H3           0.2540    -2.2450     0.3710 hc         1 LHV       0.019367
     11 H4           1.0000    -0.1120     1.4230 hc         1 LHV       0.040700
     12 H5           2.6370     1.3660     0.2620 hc         1 LHV       0.019367
     13 H6           3.3390    -0.2170     0.5790 hc         1 LHV       0.019367
     14 H7           2.7850     0.1880    -1.0420 hc         1 LHV       0.019367
     15 H8           0.2020     0.2370    -1.4900 h1         1 LHV       0.030700
     16 H9          -0.5620     2.0880     0.2920 ho         1 LHV       0.473000
     17 CG1          1.1830    -1.7670     0.0730 c3         1 LHV      -0.075100
@<TRIPOS>BOND
     1     1     4 1   
     2     1     6 1   
     3     1     7 1   
     4     2     3 1   
     5     2     4 1   
     6     2    11 1   
     7     2    17 1   
     8     3    12 1   
     9     3    13 1   
    10     3    14 1   
    11     4     5 1   
    12     4    15 1   
    13     5    16 1   
    14     8    17 1   
    15     9    17 1   
    16    10    17 1   
@<TRIPOS>SUBSTRUCTURE
     1 LHV         1 TEMP              0 ****  ****    0 ROOT
