@<TRIPOS>MOLECULE
LHV
   17    16     1     0     0
SMALL
No Charge or Current Charge


@<TRIPOS>ATOM
      1 C           -1.3560    -0.0590    -0.1020 c          1 LHV       0.691000
      2 CB           1.2140    -0.1960     0.3430 c3         1 LHV      -0.062700
      3 CG2          2.6220     0.3000    -0.0750 c3         1 LHV      -0.075100
      4 CA           0.0710     0.5170    -0.4510 c3         1 LHV       0.027300
      5 OE           0.1400     1.9530    -0.2250 oh         1 LHV      -0.716000
      6 O           -1.9050     0.3560     0.9120 o          1 LHV      -0.725000
      7 OXT         -1.9230    -0.7620    -0.9280 o          1 LHV      -0.725000
      8 H1           1.2020    -2.0550    -0.8210 hc         1 LHV       0.019367
      9 H2           1.9660    -2.2080     0.7760 hc         1 LHV       0.019367
     10 H3           0.2050    -2.1260     0.6510 hc         1 LHV       0.019367
     11 H4           1.0840     0.0490     1.4050 hc         1 LHV       0.040700
     12 H5           2.7360     1.3750     0.1050 hc         1 LHV       0.019367
     13 H6           3.4000    -0.2140     0.5010 hc         1 LHV       0.019367
     14 H7           2.8020     0.1080    -1.1400 hc         1 LHV       0.019367
     15 H8           0.2390     0.3150    -1.5180 h1         1 LHV       0.030700
     16 H9          -0.4670     2.1310     0.5330 ho         1 LHV       0.473000
     17 CG1          1.1400    -1.7390     0.2280 c3         1 LHV      -0.075100
@<TRIPOS>BOND
     1     1     4 1   
     2     1     6 1   
     3     1     7 1   
     4     2     3 1   
     5     2     4 1   
     6     2    11 1   
     7     2    17 1   
     8     3    12 1   
     9     3    13 1   
    10     3    14 1   
    11     4     5 1   
    12     4    15 1   
    13     5    16 1   
    14     8    17 1   
    15     9    17 1   
    16    10    17 1   
@<TRIPOS>SUBSTRUCTURE
     1 LHV         1 TEMP              0 ****  ****    0 ROOT
