@<TRIPOS>MOLECULE
LHX
   43    44     1     0     0
SMALL
bcc


@<TRIPOS>ATOM
      1 C2         -20.7010    13.0690    21.8660 ca         1 LHX       0.105100
      2 C4         -21.1330    13.2290    24.2450 ca         1 LHX      -0.084300
      3 C5         -20.7640    12.9310    25.6780 c3         1 LHX       0.207400
      4 C6         -21.5740    11.7410    26.2520 c3         1 LHX      -0.047400
      5 C7         -21.3580    10.4570    25.4630 c3         1 LHX       0.148400
      6 C11        -20.7420    11.4830    30.4850 ca         1 LHX       0.109100
      7 C12        -19.9090    10.8210    29.5670 ca         1 LHX       0.112100
      8 C13        -17.9920     9.4680    29.2380 c3         1 LHX       0.122700
      9 C14        -20.1940    10.8870    28.2110 ca         1 LHX      -0.185000
     10 C15        -22.2980    13.9250    23.9740 ca         1 LHX      -0.120000
     11 C16        -22.6730    14.1930    22.6610 ca         1 LHX      -0.196000
     12 C17        -21.8870    13.7760    21.6010 ca         1 LHX       0.113100
     13 O1         -19.9880    12.7010    20.7810 os         1 LHX      -0.299900
     14 C3         -20.3380    12.8050    23.1780 ca         1 LHX      -0.159000
     15 O2         -19.3760    12.7260    25.7560 oh         1 LHX      -0.599800
     16 O3         -22.1420     9.4390    26.0430 oh         1 LHX      -0.594800
     17 C8         -21.3000    11.5990    27.7310 ca         1 LHX      -0.069300
     18 C9         -22.1100    12.2460    28.6490 ca         1 LHX      -0.120000
     19 C10        -21.8360    12.1870    30.0130 ca         1 LHX      -0.192000
     20 O5         -18.8680    10.1550    30.1050 os         1 LHX      -0.297900
     21 O6         -22.1880    14.0110    20.3060 oh         1 LHX      -0.475100
     22 H1         -21.0540    13.8080    26.2760 h1         1 LHX       0.041700
     23 H2         -22.6270    12.0230    26.1410 hc         1 LHX       0.070700
     24 H3         -20.2940    10.1870    25.4520 h1         1 LHX       0.025700
     25 H4         -21.6440    10.6330    24.4200 h1         1 LHX       0.025700
     26 H5         -17.2270     9.0170    29.8640 h1         1 LHX       0.039367
     27 H6         -18.5030     8.6770    28.6820 h1         1 LHX       0.039367
     28 H7         -17.5100    10.1420    28.5240 h1         1 LHX       0.039367
     29 H8         -19.5590    10.3580    27.5110 ha         1 LHX       0.139000
     30 H9         -22.9270    14.2730    24.7850 ha         1 LHX       0.131000
     31 H10        -23.5850    14.7450    22.4640 ha         1 LHX       0.133000
     32 H11        -18.3940    11.7610    19.9920 h1         1 LHX       0.039367
     33 H12        -18.0580    12.5300    21.5540 h1         1 LHX       0.039367
     34 H13        -18.9850    11.0150    21.4880 h1         1 LHX       0.039367
     35 H14        -19.4270    12.2620    23.3860 ha         1 LHX       0.152000
     36 H15        -19.1300    12.6430    26.6840 ho         1 LHX       0.416000
     37 H16        -22.0170     8.6380    25.5270 ho         1 LHX       0.402000
     38 H17        -22.9750    12.8040    28.3100 ha         1 LHX       0.131000
     39 H18        -22.4860    12.6980    30.7150 ha         1 LHX       0.133000
     40 H19        -21.0550    11.8720    32.3260 ho         1 LHX       0.420000
     41 H20        -23.0150    14.5030    20.2440 ho         1 LHX       0.420000
     42 O4         -20.4190    11.3830    31.7920 oh         1 LHX      -0.475100
     43 C1         -18.8000    11.9660    20.9800 c3         1 LHX       0.122700
@<TRIPOS>BOND
     1     1    12 ar  
     2     1    13 1   
     3     1    14 ar  
     4     2     3 1   
     5     2    10 ar  
     6     2    14 ar  
     7     3     4 1   
     8     3    15 1   
     9     3    22 1   
    10     4     5 1   
    11     4    17 1   
    12     4    23 1   
    13     5    16 1   
    14     5    24 1   
    15     5    25 1   
    16     6     7 ar  
    17     6    19 ar  
    18     6    42 1   
    19     7     9 ar  
    20     7    20 1   
    21     8    20 1   
    22     8    26 1   
    23     8    27 1   
    24     8    28 1   
    25     9    17 ar  
    26     9    29 1   
    27    10    11 ar  
    28    10    30 1   
    29    11    12 ar  
    30    11    31 1   
    31    12    21 1   
    32    13    43 1   
    33    14    35 1   
    34    15    36 1   
    35    16    37 1   
    36    17    18 ar  
    37    18    19 ar  
    38    18    38 1   
    39    19    39 1   
    40    21    41 1   
    41    32    43 1   
    42    33    43 1   
    43    34    43 1   
    44    40    42 1   
@<TRIPOS>SUBSTRUCTURE
     1 LHX         1 TEMP              0 ****  ****    0 ROOT
