@<TRIPOS>MOLECULE
LHX
   43    44     1     0     0
SMALL
No Charge or Current Charge


@<TRIPOS>ATOM
      1 C2         -20.7860    13.0870    21.7910 ca         1 LHX       0.105100
      2 C4         -21.1590    13.2880    24.2120 ca         1 LHX      -0.084300
      3 C5         -20.7700    12.9850    25.6650 c3         1 LHX       0.230600
      4 C6         -21.4860    11.7290    26.2380 c3         1 LHX      -0.047400
      5 C7         -21.1840    10.4340    25.4300 c3         1 LHX       0.171600
      6 C11        -20.8100    11.4600    30.5470 ca         1 LHX       0.109100
      7 C12        -19.9210    10.7980    29.6670 ca         1 LHX       0.112100
      8 C13        -17.9110     9.3760    29.3860 c3         1 LHX       0.145900
      9 C14        -20.1370    10.8790    28.2710 ca         1 LHX      -0.167000
     10 C15        -22.3090    14.0610    23.9560 ca         1 LHX      -0.102000
     11 C16        -22.6990    14.3490    22.6380 ca         1 LHX      -0.178000
     12 C17        -21.9440    13.8670    21.5560 ca         1 LHX       0.113100
     13 O1         -20.0620    12.6210    20.7040 os         1 LHX      -0.323100
     14 C3         -20.4010    12.8020    23.1220 ca         1 LHX      -0.141000
     15 O2         -19.3490    12.8620    25.8110 oh         1 LHX      -0.662000
     16 O3         -21.9440     9.3300    25.9410 oh         1 LHX      -0.657000
     17 C8         -21.2320    11.6060    27.7520 ca         1 LHX      -0.069300
     18 C9         -22.1010    12.2630    28.6450 ca         1 LHX      -0.102000
     19 C10        -21.8940    12.1900    30.0320 ca         1 LHX      -0.174000
     20 O5         -18.8580    10.0880    30.2030 os         1 LHX      -0.321100
     21 O6         -22.3470    14.1620    20.2800 oh         1 LHX      -0.514100
     22 H1         -21.1050    13.8420    26.2680 h1         1 LHX       0.041700
     23 H2         -22.5590    11.9090    26.0990 hc         1 LHX       0.070700
     24 H3         -20.1100    10.2100    25.4640 h1         1 LHX       0.025700
     25 H4         -21.4470    10.5980    24.3770 h1         1 LHX       0.025700
     26 H5         -17.1600     8.8840    30.0170 h1         1 LHX       0.039367
     27 H6         -18.4140     8.6030    28.7910 h1         1 LHX       0.039367
     28 H7         -17.3880    10.0610    28.7070 h1         1 LHX       0.039367
     29 H8         -19.4610    10.3810    27.5840 ha         1 LHX       0.121000
     30 H9         -22.9050    14.4390    24.7840 ha         1 LHX       0.113000
     31 H10        -23.5900    14.9470    22.4650 ha         1 LHX       0.115000
     32 H11        -18.4660    11.5660    19.8650 h1         1 LHX       0.039367
     33 H12        -18.1030    12.3680    21.4070 h1         1 LHX       0.039367
     34 H13        -19.0980    10.8860    21.3780 h1         1 LHX       0.039367
     35 H14        -19.5190    12.2030    23.3250 ha         1 LHX       0.134000
     36 H15        -19.1850    12.7160    26.7670 ho         1 LHX       0.455000
     37 H16        -21.7140     8.5460    25.3940 ho         1 LHX       0.441000
     38 H17        -22.9440    12.8360    28.2640 ha         1 LHX       0.113000
     39 H18        -22.5800    12.7040    30.7010 ha         1 LHX       0.115000
     40 H19        -21.3440    11.9190    32.3360 ho         1 LHX       0.459000
     41 H20        -23.1610    14.7070    20.3280 ho         1 LHX       0.459000
     42 O4         -20.6310    11.4030    31.9050 oh         1 LHX      -0.514100
     43 C1         -18.8750    11.8220    20.8500 c3         1 LHX       0.145900
@<TRIPOS>BOND
     1     1    12 ar  
     2     1    13 1   
     3     1    14 ar  
     4     2     3 1   
     5     2    10 ar  
     6     2    14 ar  
     7     3     4 1   
     8     3    15 1   
     9     3    22 1   
    10     4     5 1   
    11     4    17 1   
    12     4    23 1   
    13     5    16 1   
    14     5    24 1   
    15     5    25 1   
    16     6     7 ar  
    17     6    19 ar  
    18     6    42 1   
    19     7     9 ar  
    20     7    20 1   
    21     8    20 1   
    22     8    26 1   
    23     8    27 1   
    24     8    28 1   
    25     9    17 ar  
    26     9    29 1   
    27    10    11 ar  
    28    10    30 1   
    29    11    12 ar  
    30    11    31 1   
    31    12    21 1   
    32    13    43 1   
    33    14    35 1   
    34    15    36 1   
    35    16    37 1   
    36    17    18 ar  
    37    18    19 ar  
    38    18    38 1   
    39    19    39 1   
    40    21    41 1   
    41    32    43 1   
    42    33    43 1   
    43    34    43 1   
    44    40    42 1   
@<TRIPOS>SUBSTRUCTURE
     1 LHX         1 TEMP              0 ****  ****    0 ROOT
