@<TRIPOS>MOLECULE
LHY
   27    27     1     0     0
SMALL
abcg2


@<TRIPOS>ATOM
      1 N            0.5580    -0.2800     0.7440 ns         1 LHY      -0.458900
      2 CA          -0.7970     0.2000     0.6250 c3         1 LHY      -0.035300
      3 C           -1.6290     0.0080     1.9210 c          1 LHY       0.712000
      4 O           -2.7610     0.5310     1.9020 o          1 LHY      -0.723500
      5 CB          -1.4780    -0.4970    -0.5570 c3         1 LHY      -0.038100
      6 CG          -0.7610    -0.2730    -1.8590 ca         1 LHY      -0.044300
      7 CD1          0.0460    -1.2580    -2.4220 ca         1 LHY      -0.109500
      8 CD2         -0.8740     0.9490    -2.5220 ca         1 LHY      -0.109500
      9 CE1          0.7250    -1.0320    -3.6130 ca         1 LHY      -0.115500
     10 CE2         -0.1980     1.1810    -3.7120 ca         1 LHY      -0.115500
     11 CZ           0.6060     0.1890    -4.2620 ca         1 LHY      -0.133000
     12 OXT         -1.1110    -0.6410     2.8460 o          1 LHY      -0.723500
     13 C1           1.4140     0.3120     1.6070 c          1 LHY       0.620100
     14 O1           1.2820     1.4450     2.0390 o          1 LHY      -0.612100
     15 N2           2.5340    -0.4600     1.8810 ns         1 LHY      -0.346400
     16 O2           3.3980     0.0250     2.8280 oh         1 LHY      -0.440100
     17 H            0.6970    -1.2620     0.5610 hn         1 LHY       0.282500
     18 HA          -0.7630     1.2710     0.4030 h1         1 LHY       0.069700
     19 HB1         -1.5550    -1.5700    -0.3540 hc         1 LHY       0.057700
     20 HB2         -2.4980    -0.1180    -0.6220 hc         1 LHY       0.057700
     21 HD1          0.1390    -2.2200    -1.9290 ha         1 LHY       0.110000
     22 HD2         -1.5010     1.7270    -2.1020 ha         1 LHY       0.110000
     23 HE1          1.3460    -1.8120    -4.0350 ha         1 LHY       0.096500
     24 HE2         -0.3000     2.1360    -4.2120 ha         1 LHY       0.096500
     25 HZ           1.1310     0.3670    -5.1910 ha         1 LHY       0.095000
     26 H2N          2.4060    -1.4610     1.9510 hn         1 LHY       0.279500
     27 H2O          2.9430     0.0050     3.6820 ho         1 LHY       0.419000
@<TRIPOS>BOND
     1     1     2 1   
     2     1    13 1   
     3     1    17 1   
     4     2     3 1   
     5     2     5 1   
     6     2    18 1   
     7     3     4 1   
     8     3    12 1   
     9     5     6 1   
    10     5    19 1   
    11     5    20 1   
    12     6     7 ar  
    13     6     8 ar  
    14     7     9 ar  
    15     7    21 1   
    16     8    10 ar  
    17     8    22 1   
    18     9    11 ar  
    19     9    23 1   
    20    10    11 ar  
    21    10    24 1   
    22    11    25 1   
    23    13    14 2   
    24    13    15 1   
    25    15    16 1   
    26    15    26 1   
    27    16    27 1   
@<TRIPOS>SUBSTRUCTURE
     1 LHY         1 TEMP              0 ****  ****    0 ROOT
