@<TRIPOS>MOLECULE
LHY
   27    27     1     0     0
SMALL
No Charge or Current Charge


@<TRIPOS>ATOM
      1 N            0.1690    -0.5280     1.2270 ns         1 LHY      -0.458900
      2 CA          -1.1700    -0.0030     0.8590 c3         1 LHY      -0.035300
      3 C           -2.2050    -0.3060     1.9830 c          1 LHY       0.712000
      4 O           -2.8020     0.6350     2.4880 o          1 LHY      -0.723500
      5 CB          -1.6500    -0.5490    -0.5100 c3         1 LHY      -0.038100
      6 CG          -0.7060    -0.2180    -1.6610 ca         1 LHY      -0.044300
      7 CD1          0.1960    -1.1860    -2.1470 ca         1 LHY      -0.109500
      8 CD2         -0.7300     1.0600    -2.2520 ca         1 LHY      -0.109500
      9 CE1          1.0630    -0.8780    -3.2100 ca         1 LHY      -0.115500
     10 CE2          0.1360     1.3680    -3.3150 ca         1 LHY      -0.115500
     11 CZ           1.0330     0.3990    -3.7950 ca         1 LHY      -0.133000
     12 OXT         -2.3270    -1.4620     2.3710 o          1 LHY      -0.723500
     13 C1           1.3590     0.1300     1.0310 c          1 LHY       0.620100
     14 O1           1.4530     1.2610     0.5780 o          1 LHY      -0.612100
     15 N2           2.4600    -0.6110     1.4220 ns         1 LHY      -0.346400
     16 O2           3.7650    -0.0030     1.4760 oh         1 LHY      -0.440100
     17 H            0.2170    -1.4540     1.6320 hn         1 LHY       0.282500
     18 HA          -1.1030     1.0900     0.7820 h1         1 LHY       0.069700
     19 HB1         -1.7850    -1.6350    -0.4340 hc         1 LHY       0.057700
     20 HB2         -2.6440    -0.1390    -0.7220 hc         1 LHY       0.057700
     21 HD1          0.2270    -2.1770    -1.6990 ha         1 LHY       0.110000
     22 HD2         -1.4200     1.8170    -1.8850 ha         1 LHY       0.110000
     23 HE1          1.7570    -1.6290    -3.5800 ha         1 LHY       0.096500
     24 HE2          0.1130     2.3580    -3.7660 ha         1 LHY       0.096500
     25 HZ           1.7040     0.6370    -4.6170 ha         1 LHY       0.095000
     26 H2N          2.3430    -1.4690     1.9520 hn         1 LHY       0.279500
     27 H2O          3.5480     0.9560     1.3920 ho         1 LHY       0.419000
@<TRIPOS>BOND
     1     1     2 1   
     2     1    13 1   
     3     1    17 1   
     4     2     3 1   
     5     2     5 1   
     6     2    18 1   
     7     3     4 1   
     8     3    12 1   
     9     5     6 1   
    10     5    19 1   
    11     5    20 1   
    12     6     7 ar  
    13     6     8 ar  
    14     7     9 ar  
    15     7    21 1   
    16     8    10 ar  
    17     8    22 1   
    18     9    11 ar  
    19     9    23 1   
    20    10    11 ar  
    21    10    24 1   
    22    11    25 1   
    23    13    14 2   
    24    13    15 1   
    25    15    16 1   
    26    15    26 1   
    27    16    27 1   
@<TRIPOS>SUBSTRUCTURE
     1 LHY         1 TEMP              0 ****  ****    0 ROOT
