@<TRIPOS>MOLECULE
LHZ
   60    64     1     0     0
SMALL
No Charge or Current Charge


@<TRIPOS>ATOM
      1 C1          -3.0800    -1.6970    -1.7770 ca         1 LHZ      -0.185300
      2 C2          -4.4350    -2.0860    -1.7900 ca         1 LHZ       0.128900
      3 C3          -4.9120    -0.5440    -0.1780 ca         1 LHZ       0.384900
      4 N6          -9.3600     0.5330     1.4610 nc         1 LHZ      -0.529800
      5 C7           0.8030     0.2260    -0.9750 cc         1 LHZ       0.326000
      6 C8           2.2300     0.1670    -1.4400 c          1 LHZ       0.499500
      7 C9           2.6900     1.6420     0.6050 c6         1 LHZ       0.111700
      8 C10          1.2110     2.1280     0.5830 c6         1 LHZ       0.059600
      9 C11          3.6010     2.7830     1.1650 c3         1 LHZ       0.146600
     10 C12          4.4580     4.9850     0.6390 c3         1 LHZ       0.139900
     11 C14          5.3020    -0.2600    -0.6360 ca         1 LHZ      -0.108300
     12 C15          5.7200    -1.2120    -1.5910 ca         1 LHZ      -0.064000
     13 C16          6.4020    -2.3740    -1.1880 ca         1 LHZ      -0.128000
     14 C19          5.5780    -0.4860     0.7290 ca         1 LHZ      -0.127000
     15 C20         -7.1910    -0.0330     0.8220 cc         1 LHZ       0.253000
     16 C21         -8.0080    -1.1020     0.6390 cd         1 LHZ      -0.240000
     17 C22         -9.3060    -0.7130     1.0240 cd         1 LHZ       0.255900
     18 C17          6.6710    -2.5920     0.1730 ca         1 LHZ       0.143000
     19 C18          6.2590    -1.6480     1.1310 ca         1 LHZ       0.126000
     20 F            6.5140    -1.8500     2.4440 f          1 LHZ      -0.163000
     21 N4           3.1200     1.0050    -0.7020 n          1 LHZ      -0.401800
     22 O1           3.6410     3.8770     0.2280 os         1 LHZ      -0.447000
     23 N2           0.3550     1.1040    -0.0230 na         1 LHZ      -0.144500
     24 C6          -0.9930     0.9100     0.1630 cc         1 LHZ      -0.141000
     25 O            2.6180    -0.5270    -2.3760 o          1 LHZ      -0.508000
     26 N3          -0.2180    -0.5070    -1.4180 nd         1 LHZ      -0.585000
     27 C5          -1.3370    -0.0970    -0.7100 cd         1 LHZ       0.156000
     28 C4          -2.7130    -0.6540    -0.8750 ca         1 LHZ       0.154000
     29 C           -2.1080    -2.4070    -2.7170 c3         1 LHZ      -0.024800
     30 N1          -3.6540    -0.0900    -0.0820 nb         1 LHZ      -0.269000
     31 N           -5.3540    -1.5130    -0.9950 nb         1 LHZ      -0.208000
     32 N5          -5.8230     0.0870     0.6570 nu         1 LHZ      -0.929900
     33 N7          -8.0430     0.9490     1.3460 na         1 LHZ       0.084800
     34 C23         -7.6660     2.3130     1.7500 c3         1 LHZ       0.066900
     35 H1          -4.7940    -2.8730    -2.4510 h4         1 LHZ       0.024100
     36 H2           2.7350     0.8390     1.3560 h1         1 LHZ       0.062700
     37 H3           0.8660     2.3450     1.6040 h1         1 LHZ       0.081200
     38 H4           1.1290     3.0480    -0.0110 h1         1 LHZ       0.081200
     39 H5           3.1930     3.1170     2.1280 h1         1 LHZ       0.034700
     40 H6           4.6090     2.3950     1.3540 h1         1 LHZ       0.034700
     41 H7           5.5010     4.6710     0.7770 h1         1 LHZ       0.036367
     42 H8           4.4380     5.7760    -0.1210 h1         1 LHZ       0.036367
     43 H9           4.0950     5.4100     1.5840 h1         1 LHZ       0.036367
     44 H12          5.5110    -1.0540    -2.6470 ha         1 LHZ       0.139000
     45 H13          6.7200    -3.1060    -1.9270 ha         1 LHZ       0.140000
     46 H14          5.2670     0.2300     1.4830 ha         1 LHZ       0.122000
     47 H15         -7.7200    -2.0790     0.2730 ha         1 LHZ       0.168000
     48 H16        -10.2100    -1.3090     1.0090 h4         1 LHZ       0.035100
     49 H17         -1.5890     1.4830     0.8630 h4         1 LHZ       0.175000
     50 H18         -1.6500    -1.7040    -3.4220 hc         1 LHZ       0.051033
     51 H19         -1.3080    -2.9080    -2.1580 hc         1 LHZ       0.051033
     52 H20         -2.6120    -3.1770    -3.3130 hc         1 LHZ       0.051033
     53 H21         -5.4160     0.8880     1.1420 hn         1 LHZ       0.510000
     54 H22         -7.1270     2.8020     0.9290 h1         1 LHZ       0.053700
     55 H23         -8.5630     2.8980     1.9880 h1         1 LHZ       0.053700
     56 H24         -7.0200     2.2670     2.6350 h1         1 LHZ       0.053700
     57 C13          4.5590     0.9970    -1.0840 c3         1 LHZ       0.149300
     58 F1           7.3270    -3.7130     0.5530 f          1 LHZ      -0.159000
     59 H10          5.0790     1.8780    -0.6940 h1         1 LHZ       0.074200
     60 H11          4.6260     1.0840    -2.1770 h1         1 LHZ       0.074200
@<TRIPOS>BOND
     1     1     2 ar  
     2     1    28 ar  
     3     1    29 1   
     4     2    31 ar  
     5     2    35 1   
     6     3    30 ar  
     7     3    31 ar  
     8     3    32 1   
     9     4    17 2   
    10     4    33 1   
    11     5     6 1   
    12     5    23 1   
    13     5    26 2   
    14     6    21 1   
    15     6    25 2   
    16     7     8 1   
    17     7     9 1   
    18     7    21 1   
    19     7    36 1   
    20     8    23 1   
    21     8    37 1   
    22     8    38 1   
    23     9    22 1   
    24     9    39 1   
    25     9    40 1   
    26    10    22 1   
    27    10    41 1   
    28    10    42 1   
    29    10    43 1   
    30    11    12 ar  
    31    11    14 ar  
    32    11    57 1   
    33    12    13 ar  
    34    12    44 1   
    35    13    18 ar  
    36    13    45 1   
    37    14    19 ar  
    38    14    46 1   
    39    15    16 2   
    40    15    32 1   
    41    15    33 1   
    42    16    17 1   
    43    16    47 1   
    44    17    48 1   
    45    18    19 ar  
    46    18    58 1   
    47    19    20 1   
    48    21    57 1   
    49    23    24 1   
    50    24    27 2   
    51    24    49 1   
    52    26    27 1   
    53    27    28 1   
    54    28    30 ar  
    55    29    50 1   
    56    29    51 1   
    57    29    52 1   
    58    32    53 1   
    59    33    34 1   
    60    34    54 1   
    61    34    55 1   
    62    34    56 1   
    63    57    59 1   
    64    57    60 1   
@<TRIPOS>SUBSTRUCTURE
     1 LHZ         1 TEMP              0 ****  ****    0 ROOT
