@<TRIPOS>MOLECULE
LHZ
   60    64     1     0     0
SMALL
bcc


@<TRIPOS>ATOM
      1 C1          -2.8980    -1.7210    -1.6240 ca         1 LHZ      -0.315900
      2 C2          -4.2250    -2.1240    -1.5810 ca         1 LHZ       0.457200
      3 C3          -4.7980    -0.4530    -0.2060 ca         1 LHZ       0.910900
      4 N6          -9.1170     0.3910     1.4220 nc         1 LHZ      -0.529800
      5 C7           0.7720     0.4070    -1.0050 cc         1 LHZ       0.326000
      6 C8           2.1710     0.3940    -1.4620 c          1 LHZ       0.642000
      7 C9           2.6280     1.7000     0.5670 c6         1 LHZ       0.111700
      8 C10          1.2260     2.2890     0.4760 c6         1 LHZ       0.030300
      9 C11          3.5700     2.7640     1.1020 c3         1 LHZ       0.123400
     10 C12          4.5100     4.8500     0.6450 c3         1 LHZ       0.116700
     11 C14          5.0820    -0.2510    -0.6490 ca         1 LHZ      -0.108300
     12 C15          5.3940    -1.2460    -1.5680 ca         1 LHZ      -0.082000
     13 C16          5.9780    -2.4390    -1.1650 ca         1 LHZ      -0.146000
     14 C19          5.3670    -0.4700     0.6980 ca         1 LHZ      -0.145000
     15 C20         -7.0580    -0.0420     0.6730 cc         1 LHZ       0.165300
     16 C21         -7.8660    -1.0840     0.2540 cd         1 LHZ      -0.323300
     17 C22         -9.1320    -0.7440     0.7570 cd         1 LHZ       0.321200
     18 C17          6.2420    -2.6430     0.1710 ca         1 LHZ       0.107900
     19 C18          5.9370    -1.6590     1.0970 ca         1 LHZ       0.090900
     20 F            6.2110    -1.8740     2.3880 f          1 LHZ      -0.127900
     21 N4           3.0360     1.1520    -0.7370 n          1 LHZ      -0.468800
     22 O1           3.6640     3.8200     0.1910 os         1 LHZ      -0.400600
     23 N2           0.3420     1.2890    -0.0760 na         1 LHZ      -0.165900
     24 C6          -0.9730     1.0770     0.1110 cc         1 LHZ      -0.173600
     25 O            2.4960    -0.2550    -2.4420 o          1 LHZ      -0.583500
     26 N3          -0.1920    -0.3730    -1.4180 nd         1 LHZ      -0.585000
     27 C5          -1.2940     0.0250    -0.7310 cd         1 LHZ       0.221300
     28 C4          -2.6160    -0.5810    -0.8540 ca         1 LHZ       0.482300
     29 C           -1.9110    -2.4970    -2.4390 c3         1 LHZ      -0.024800
     30 N1          -3.5670     0.0360    -0.1570 nb         1 LHZ      -0.795000
     31 N           -5.1820    -1.5190    -0.8920 nb         1 LHZ      -0.734000
     32 N5          -5.7200     0.2400     0.5290 nu         1 LHZ      -0.736300
     33 N7          -7.8460     0.8130     1.3620 na         1 LHZ       0.063400
     34 C23         -7.4490     2.0520     1.9850 c3         1 LHZ       0.037600
     35 H1          -4.5300    -3.0030    -2.1430 h4         1 LHZ       0.024100
     36 H2           2.6120     0.8970     1.3150 h1         1 LHZ       0.062700
     37 H3           0.8800     2.5630     1.4700 h1         1 LHZ       0.081200
     38 H4           1.2100     3.1770    -0.1580 h1         1 LHZ       0.081200
     39 H5           3.1660     3.0960     2.0690 h1         1 LHZ       0.034700
     40 H6           4.5580     2.3390     1.3260 h1         1 LHZ       0.034700
     41 H7           5.5300     4.4910     0.8190 h1         1 LHZ       0.036367
     42 H8           4.5400     5.6200    -0.1240 h1         1 LHZ       0.036367
     43 H9           4.1430     5.2980     1.5750 h1         1 LHZ       0.036367
     44 H12          5.1840    -1.0910    -2.6180 ha         1 LHZ       0.157000
     45 H13          6.2230    -3.2090    -1.8850 ha         1 LHZ       0.158000
     46 H14          5.1690     0.2810     1.4540 ha         1 LHZ       0.140000
     47 H15         -7.5840    -1.9440    -0.3230 ha         1 LHZ       0.186000
     48 H16        -10.0520    -1.2990     0.6510 h4         1 LHZ       0.035100
     49 H17         -1.5650     1.6510     0.8030 h4         1 LHZ       0.193000
     50 H18         -1.4780    -1.8960    -3.2370 hc         1 LHZ       0.051033
     51 H19         -1.0810    -2.8640    -1.8370 hc         1 LHZ       0.051033
     52 H20         -2.4050    -3.3560    -2.8920 hc         1 LHZ       0.051033
     53 H21         -5.3450     1.0380     1.0180 hn         1 LHZ       0.454800
     54 H22         -7.0670     2.7600     1.2490 h1         1 LHZ       0.053700
     55 H23         -8.3250     2.4840     2.4580 h1         1 LHZ       0.053700
     56 H24         -6.6900     1.8870     2.7500 h1         1 LHZ       0.053700
     57 C13          4.4450     1.0400    -1.1030 c3         1 LHZ       0.149300
     58 F1           6.7980    -3.7840     0.5910 f          1 LHZ      -0.123900
     59 H10          4.9840     1.8960    -0.7060 h1         1 LHZ       0.074200
     60 H11          4.5210     1.1230    -2.1860 h1         1 LHZ       0.074200
@<TRIPOS>BOND
     1     1     2 ar  
     2     1    28 ar  
     3     1    29 1   
     4     2    31 ar  
     5     2    35 1   
     6     3    30 ar  
     7     3    31 ar  
     8     3    32 1   
     9     4    17 2   
    10     4    33 1   
    11     5     6 1   
    12     5    23 1   
    13     5    26 2   
    14     6    21 1   
    15     6    25 2   
    16     7     8 1   
    17     7     9 1   
    18     7    21 1   
    19     7    36 1   
    20     8    23 1   
    21     8    37 1   
    22     8    38 1   
    23     9    22 1   
    24     9    39 1   
    25     9    40 1   
    26    10    22 1   
    27    10    41 1   
    28    10    42 1   
    29    10    43 1   
    30    11    12 ar  
    31    11    14 ar  
    32    11    57 1   
    33    12    13 ar  
    34    12    44 1   
    35    13    18 ar  
    36    13    45 1   
    37    14    19 ar  
    38    14    46 1   
    39    15    16 2   
    40    15    32 1   
    41    15    33 1   
    42    16    17 1   
    43    16    47 1   
    44    17    48 1   
    45    18    19 ar  
    46    18    58 1   
    47    19    20 1   
    48    21    57 1   
    49    23    24 1   
    50    24    27 2   
    51    24    49 1   
    52    26    27 1   
    53    27    28 1   
    54    28    30 ar  
    55    29    50 1   
    56    29    51 1   
    57    29    52 1   
    58    32    53 1   
    59    33    34 1   
    60    34    54 1   
    61    34    55 1   
    62    34    56 1   
    63    57    59 1   
    64    57    60 1   
@<TRIPOS>SUBSTRUCTURE
     1 LHZ         1 TEMP              0 ****  ****    0 ROOT
