@<TRIPOS>MOLECULE
LI1
  131   130     1     0     0
SMALL
bcc


@<TRIPOS>ATOM
      1 C1          -0.9380     6.1830     7.8990 c3         1 LI1       0.113400
      2 C2          -1.8030     5.8770     6.6860 c3         1 LI1       0.110100
      3 C3          -1.0430     6.0360     5.3770 c3         1 LI1       0.142400
      4 O1           0.0920     5.2380     7.9810 os         1 LI1      -0.400600
      5 O2          -2.2890     4.5540     6.7050 os         1 LI1      -0.412600
      6 O3          -1.8670     5.8140     4.2560 oh         1 LI1      -0.598800
      7 C41         -3.3810     4.3200     7.5630 c3         1 LI1       0.141400
      8 C42         -3.5610     2.8250     7.7310 c3         1 LI1      -0.074400
      9 C43         -3.8630     2.0340     6.4560 c3         1 LI1      -0.054700
     10 C44         -5.1780     2.4800     5.8240 c3         1 LI1      -0.088100
     11 C45         -3.8990     0.5290     6.7430 c3         1 LI1      -0.074400
     12 C46         -2.5640    -0.0770     7.1620 c3         1 LI1      -0.078400
     13 C47         -2.6480    -1.5860     7.3590 c3         1 LI1      -0.074400
     14 C48         -1.3740    -2.2350     7.9030 c3         1 LI1      -0.058700
     15 C49         -0.1690    -1.9660     7.0050 c3         1 LI1      -0.089100
     16 C50         -1.5500    -3.7470     8.0810 c3         1 LI1      -0.070400
     17 C51         -2.6700    -4.1920     9.0190 c3         1 LI1      -0.073400
     18 C52         -2.4660    -3.7930    10.4750 c3         1 LI1      -0.077400
     19 C53         -3.6270    -4.2080    11.3690 c3         1 LI1      -0.075400
     20 C55         -3.4160    -3.8660    12.8380 c3         1 LI1      -0.076400
     21 C56         -4.5910    -4.2740    13.7180 c3         1 LI1      -0.074400
     22 C57         -4.3460    -4.0100    15.1980 c3         1 LI1      -0.075400
     23 C58         -5.4640    -4.4720    16.1350 c3         1 LI1      -0.058700
     24 C59         -6.7790    -3.7420    15.8780 c3         1 LI1      -0.088100
     25 C60         -5.0360    -4.3000    17.5890 c3         1 LI1      -0.088100
     26 C11          0.8370     5.2950     9.1730 c3         1 LI1       0.138400
     27 C12          1.5770     3.9840     9.3550 c3         1 LI1      -0.072400
     28 C13          0.6830     2.7430     9.4470 c3         1 LI1      -0.058700
     29 C14          1.5540     1.4940     9.5460 c3         1 LI1      -0.088100
     30 C15         -0.3070     2.8470    10.6090 c3         1 LI1      -0.071400
     31 C16         -1.1780     1.6140    10.8260 c3         1 LI1      -0.076400
     32 C17         -2.3790     1.9130    11.7170 c3         1 LI1      -0.073400
     33 C18         -3.2090     0.6930    12.1140 c3         1 LI1      -0.057700
     34 C19         -3.6700    -0.0920    10.8890 c3         1 LI1      -0.093100
     35 C20         -4.4320     1.0830    12.9490 c3         1 LI1      -0.071400
     36 C21         -4.1670     1.9300    14.1920 c3         1 LI1      -0.071400
     37 C22         -3.2110     1.3150    15.2110 c3         1 LI1      -0.070400
     38 C23         -3.6370    -0.0430    15.7710 c3         1 LI1      -0.057700
     39 C24         -2.5910    -0.5640    16.7530 c3         1 LI1      -0.089100
     40 C25         -5.0410    -0.0310    16.3840 c3         1 LI1      -0.073400
     41 C26         -5.2580     0.9310    17.5480 c3         1 LI1      -0.074400
     42 C27         -6.6810     0.8350    18.0890 c3         1 LI1      -0.071400
     43 C28         -7.0130     1.7490    19.2730 c3         1 LI1      -0.057700
     44 C29         -6.1720     1.4320    20.5060 c3         1 LI1      -0.086100
     45 C30         -6.9080     3.2280    18.9120 c3         1 LI1      -0.086100
     46 H11         -1.5510     6.1650     8.8120 h1         1 LI1       0.023200
     47 H12         -0.5530     7.2100     7.8100 h1         1 LI1       0.023200
     48 H2          -2.6360     6.5980     6.6910 h1         1 LI1       0.044700
     49 H31         -0.1710     5.3700     5.3720 h1         1 LI1       0.055200
     50 H32         -0.6700     7.0600     5.3060 h1         1 LI1       0.055200
     51 HO3         -2.2540     4.9380     4.3590 ho         1 LI1       0.415000
     52 H411        -3.2080     4.7580     8.5540 h1         1 LI1       0.019700
     53 H412        -4.2880     4.7980     7.1680 h1         1 LI1       0.019700
     54 H421        -4.3740     2.6650     8.4490 hc         1 LI1       0.049200
     55 H422        -2.6540     2.4400     8.2040 hc         1 LI1       0.049200
     56 H43         -3.0580     2.2140     5.7340 hc         1 LI1       0.058700
     57 H441        -5.1560     3.5270     5.5180 hc         1 LI1       0.031700
     58 H442        -5.4090     1.8900     4.9360 hc         1 LI1       0.031700
     59 H443        -6.0080     2.3590     6.5250 hc         1 LI1       0.031700
     60 H451        -4.6510     0.3300     7.5180 hc         1 LI1       0.036200
     61 H452        -4.2470     0.0090     5.8440 hc         1 LI1       0.036200
     62 H461        -1.8110     0.1660     6.4070 hc         1 LI1       0.040700
     63 H462        -2.2180     0.3760     8.0950 hc         1 LI1       0.040700
     64 H471        -3.4750    -1.7910     8.0460 hc         1 LI1       0.037200
     65 H472        -2.9150    -2.0670     6.4100 hc         1 LI1       0.037200
     66 H48         -1.1600    -1.7870     8.8830 hc         1 LI1       0.043700
     67 H491        -0.3490    -2.3300     5.9900 hc         1 LI1       0.032700
     68 H492         0.0670    -0.9030     6.9360 hc         1 LI1       0.032700
     69 H493         0.7210    -2.4700     7.3850 hc         1 LI1       0.032700
     70 H501        -0.6050    -4.1720     8.4370 hc         1 LI1       0.037700
     71 H502        -1.7230    -4.1880     7.0920 hc         1 LI1       0.037700
     72 H511        -2.7550    -5.2820     8.9610 hc         1 LI1       0.037200
     73 H512        -3.6320    -3.8060     8.6680 hc         1 LI1       0.037200
     74 H521        -1.5360    -4.2390    10.8460 hc         1 LI1       0.039200
     75 H522        -2.3330    -2.7100    10.5540 hc         1 LI1       0.039200
     76 H531        -4.5430    -3.7230    11.0140 hc         1 LI1       0.036200
     77 H532        -3.7980    -5.2860    11.2710 hc         1 LI1       0.036200
     78 H551        -3.2400    -2.7880    12.9410 hc         1 LI1       0.037200
     79 H552        -2.5030    -4.3560    13.1970 hc         1 LI1       0.037200
     80 H561        -5.4850    -3.7400    13.3800 hc         1 LI1       0.037200
     81 H562        -4.8020    -5.3400    13.5730 hc         1 LI1       0.037200
     82 H571        -3.4160    -4.5110    15.4940 hc         1 LI1       0.038200
     83 H572        -4.1680    -2.9390    15.3500 hc         1 LI1       0.038200
     84 H58         -5.6300    -5.5410    15.9530 hc         1 LI1       0.043700
     85 H591        -6.6640    -2.6670    16.0340 hc         1 LI1       0.031867
     86 H592        -7.5590    -4.0900    16.5580 hc         1 LI1       0.031867
     87 H593        -7.1450    -3.8920    14.8620 hc         1 LI1       0.031867
     88 H601        -4.8070    -3.2530    17.8050 hc         1 LI1       0.031867
     89 H602        -4.1430    -4.8850    17.8170 hc         1 LI1       0.031867
     90 H603        -5.8220    -4.6150    18.2790 hc         1 LI1       0.031867
     91 H111         1.5510     6.1310     9.1490 h1         1 LI1       0.020700
     92 H112         0.1750     5.4760    10.0300 h1         1 LI1       0.020700
     93 H121         2.2880     3.8570     8.5310 hc         1 LI1       0.046200
     94 H122         2.1810     4.0630    10.2660 hc         1 LI1       0.046200
     95 H13          0.0970     2.6770     8.5230 hc         1 LI1       0.066700
     96 H141         2.2590     1.4410     8.7150 hc         1 LI1       0.031367
     97 H142         2.1350     1.4920    10.4730 hc         1 LI1       0.031367
     98 H143         0.9610     0.5800     9.5260 hc         1 LI1       0.031367
     99 H151         0.2360     3.0730    11.5350 hc         1 LI1       0.033700
    100 H152        -0.9690     3.7020    10.4360 hc         1 LI1       0.033700
    101 H161        -0.5900     0.8050    11.2700 hc         1 LI1       0.039700
    102 H162        -1.5210     1.2400     9.8570 hc         1 LI1       0.039700
    103 H171        -3.0310     2.6360    11.2080 hc         1 LI1       0.035200
    104 H172        -2.0200     2.4200    12.6190 hc         1 LI1       0.035200
    105 H18         -2.5710     0.0310    12.7140 hc         1 LI1       0.045700
    106 H191        -4.2420     0.5460    10.2110 hc         1 LI1       0.033700
    107 H192        -2.8330    -0.4990    10.3210 hc         1 LI1       0.033700
    108 H193        -4.3070    -0.9320    11.1750 hc         1 LI1       0.033700
    109 H201        -4.9560     0.1660    13.2380 hc         1 LI1       0.036700
    110 H202        -5.1270     1.6300    12.3010 hc         1 LI1       0.036700
    111 H211        -3.7750     2.9060    13.8930 hc         1 LI1       0.037200
    112 H212        -5.1270     2.1400    14.6730 hc         1 LI1       0.037200
    113 H221        -2.2160     1.2080    14.7650 hc         1 LI1       0.037200
    114 H222        -3.0810     2.0240    16.0360 hc         1 LI1       0.037200
    115 H23         -3.6690    -0.7530    14.9350 hc         1 LI1       0.045700
    116 H241        -1.6200    -0.6730    16.2670 hc         1 LI1       0.031700
    117 H242        -2.4590     0.1130    17.5990 hc         1 LI1       0.031700
    118 H243        -2.8720    -1.5410    17.1530 hc         1 LI1       0.031700
    119 H251        -5.2770    -1.0450    16.7250 hc         1 LI1       0.036700
    120 H252        -5.7770     0.1900    15.6020 hc         1 LI1       0.036700
    121 H261        -4.5420     0.7140    18.3460 hc         1 LI1       0.039700
    122 H262        -5.0510     1.9560    17.2250 hc         1 LI1       0.039700
    123 H271        -7.3830     1.0520    17.2750 hc         1 LI1       0.035200
    124 H272        -6.8770    -0.2030    18.3820 hc         1 LI1       0.035200
    125 H28         -8.0590     1.5490    19.5310 hc         1 LI1       0.041700
    126 H291        -6.5150     2.0040    21.3710 hc         1 LI1       0.031033
    127 H292        -6.2280     0.3730    20.7680 hc         1 LI1       0.031033
    128 H293        -5.1200     1.6810    20.3520 hc         1 LI1       0.031033
    129 H301        -7.2580     3.8570    19.7330 hc         1 LI1       0.031033
    130 H302        -5.8780     3.5200    18.6980 hc         1 LI1       0.031033
    131 H303        -7.5100     3.4690    18.0330 hc         1 LI1       0.031033
@<TRIPOS>BOND
     1     1     2 1   
     2     1     4 1   
     3     1    46 1   
     4     1    47 1   
     5     2     3 1   
     6     2     5 1   
     7     2    48 1   
     8     3     6 1   
     9     3    49 1   
    10     3    50 1   
    11     4    26 1   
    12     5     7 1   
    13     6    51 1   
    14     7     8 1   
    15     7    52 1   
    16     7    53 1   
    17     8     9 1   
    18     8    54 1   
    19     8    55 1   
    20     9    10 1   
    21     9    11 1   
    22     9    56 1   
    23    10    57 1   
    24    10    58 1   
    25    10    59 1   
    26    11    12 1   
    27    11    60 1   
    28    11    61 1   
    29    12    13 1   
    30    12    62 1   
    31    12    63 1   
    32    13    14 1   
    33    13    64 1   
    34    13    65 1   
    35    14    15 1   
    36    14    16 1   
    37    14    66 1   
    38    15    67 1   
    39    15    68 1   
    40    15    69 1   
    41    16    17 1   
    42    16    70 1   
    43    16    71 1   
    44    17    18 1   
    45    17    72 1   
    46    17    73 1   
    47    18    19 1   
    48    18    74 1   
    49    18    75 1   
    50    19    20 1   
    51    19    76 1   
    52    19    77 1   
    53    20    21 1   
    54    20    78 1   
    55    20    79 1   
    56    21    22 1   
    57    21    80 1   
    58    21    81 1   
    59    22    23 1   
    60    22    82 1   
    61    22    83 1   
    62    23    24 1   
    63    23    25 1   
    64    23    84 1   
    65    24    85 1   
    66    24    86 1   
    67    24    87 1   
    68    25    88 1   
    69    25    89 1   
    70    25    90 1   
    71    26    27 1   
    72    26    91 1   
    73    26    92 1   
    74    27    28 1   
    75    27    93 1   
    76    27    94 1   
    77    28    29 1   
    78    28    30 1   
    79    28    95 1   
    80    29    96 1   
    81    29    97 1   
    82    29    98 1   
    83    30    31 1   
    84    30    99 1   
    85    30   100 1   
    86    31    32 1   
    87    31   101 1   
    88    31   102 1   
    89    32    33 1   
    90    32   103 1   
    91    32   104 1   
    92    33    34 1   
    93    33    35 1   
    94    33   105 1   
    95    34   106 1   
    96    34   107 1   
    97    34   108 1   
    98    35    36 1   
    99    35   109 1   
   100    35   110 1   
   101    36    37 1   
   102    36   111 1   
   103    36   112 1   
   104    37    38 1   
   105    37   113 1   
   106    37   114 1   
   107    38    39 1   
   108    38    40 1   
   109    38   115 1   
   110    39   116 1   
   111    39   117 1   
   112    39   118 1   
   113    40    41 1   
   114    40   119 1   
   115    40   120 1   
   116    41    42 1   
   117    41   121 1   
   118    41   122 1   
   119    42    43 1   
   120    42   123 1   
   121    42   124 1   
   122    43    44 1   
   123    43    45 1   
   124    43   125 1   
   125    44   126 1   
   126    44   127 1   
   127    44   128 1   
   128    45   129 1   
   129    45   130 1   
   130    45   131 1   
@<TRIPOS>SUBSTRUCTURE
     1 LI1         1 TEMP              0 ****  ****    0 ROOT
