@<TRIPOS>MOLECULE
LI1
  131   130     1     0     0
SMALL
No Charge or Current Charge


@<TRIPOS>ATOM
      1 C1          -0.6640     6.3180     7.4780 c3         1 LI1       0.136600
      2 C2          -1.4420     5.7750     6.2430 c3         1 LI1       0.133300
      3 C3          -0.5410     5.6130     4.9910 c3         1 LI1       0.165600
      4 O1           0.3070     5.3400     7.8960 os         1 LI1      -0.447000
      5 O2          -2.0280     4.4720     6.5220 os         1 LI1      -0.459000
      6 O3          -1.2200     4.7910     4.0290 oh         1 LI1      -0.721000
      7 C41         -3.0330     4.4200     7.5530 c3         1 LI1       0.164600
      8 C42         -3.3880     2.9360     7.7890 c3         1 LI1      -0.074400
      9 C43         -3.9590     2.1670     6.5600 c3         1 LI1      -0.054700
     10 C44         -5.2930     2.7810     6.0690 c3         1 LI1      -0.088100
     11 C45         -4.1330     0.6460     6.8370 c3         1 LI1      -0.074400
     12 C46         -2.8130    -0.1260     7.0860 c3         1 LI1      -0.078400
     13 C47         -3.0280    -1.6480     7.2640 c3         1 LI1      -0.074400
     14 C48         -1.7550    -2.4470     7.6750 c3         1 LI1      -0.058700
     15 C49         -0.5900    -2.2550     6.6720 c3         1 LI1      -0.089100
     16 C50         -2.0420    -3.9670     7.8650 c3         1 LI1      -0.070400
     17 C51         -3.1080    -4.3500     8.9250 c3         1 LI1      -0.073400
     18 C52         -2.7700    -3.9070    10.3670 c3         1 LI1      -0.077400
     19 C53         -3.8250    -4.3650    11.3970 c3         1 LI1      -0.075400
     20 C55         -3.4950    -3.9270    12.8400 c3         1 LI1      -0.076400
     21 C56         -4.5340    -4.4250    13.8690 c3         1 LI1      -0.074400
     22 C57         -4.2020    -3.9930    15.3160 c3         1 LI1      -0.075400
     23 C58         -5.1600    -4.5490    16.4050 c3         1 LI1      -0.058700
     24 C59         -6.6300    -4.1060    16.2070 c3         1 LI1      -0.088100
     25 C60         -4.6620    -4.1760    17.8210 c3         1 LI1      -0.088100
     26 C11          0.9800     5.6480     9.1240 c3         1 LI1       0.161600
     27 C12          1.7950     4.4070     9.5570 c3         1 LI1      -0.072400
     28 C13          0.9920     3.0780     9.7020 c3         1 LI1      -0.058700
     29 C14          1.9450     1.9230    10.1000 c3         1 LI1      -0.088100
     30 C15         -0.2170     3.2170    10.6750 c3         1 LI1      -0.071400
     31 C16         -1.0460     1.9270    10.8870 c3         1 LI1      -0.076400
     32 C17         -2.3750     2.1940    11.6340 c3         1 LI1      -0.073400
     33 C18         -3.1760     0.9220    12.0400 c3         1 LI1      -0.057700
     34 C19         -3.5280     0.0340    10.8210 c3         1 LI1      -0.093100
     35 C20         -4.4710     1.2640    12.8350 c3         1 LI1      -0.071400
     36 C21         -4.2900     2.0830    14.1430 c3         1 LI1      -0.071400
     37 C22         -3.3170     1.4810    15.1910 c3         1 LI1      -0.070400
     38 C23         -3.6540     0.0460    15.6900 c3         1 LI1      -0.057700
     39 C24         -2.5590    -0.4760    16.6520 c3         1 LI1      -0.089100
     40 C25         -5.0820    -0.1020    16.2930 c3         1 LI1      -0.073400
     41 C26         -5.3890     0.7780    17.5290 c3         1 LI1      -0.074400
     42 C27         -6.8160     0.5390    18.0840 c3         1 LI1      -0.071400
     43 C28         -7.2050     1.3810    19.3310 c3         1 LI1      -0.057700
     44 C29         -6.3400     1.0550    20.5710 c3         1 LI1      -0.086100
     45 C30         -7.2370     2.9010    19.0450 c3         1 LI1      -0.086100
     46 H11         -1.3690     6.5430     8.2890 h1         1 LI1       0.023200
     47 H12         -0.1660     7.2580     7.2060 h1         1 LI1       0.023200
     48 H2          -2.2350     6.4940     5.9960 h1         1 LI1       0.044700
     49 H31          0.4070     5.1420     5.2870 h1         1 LI1       0.055200
     50 H32         -0.3070     6.6020     4.5740 h1         1 LI1       0.055200
     51 HO3         -1.7710     4.1980     4.5980 ho         1 LI1       0.514000
     52 H411        -2.6570     4.8300     8.4970 h1         1 LI1       0.019700
     53 H412        -3.9250     4.9900     7.2630 h1         1 LI1       0.019700
     54 H421        -4.1040     2.8750     8.6170 hc         1 LI1       0.049200
     55 H422        -2.4730     2.4490     8.1380 hc         1 LI1       0.049200
     56 H43         -3.2400     2.2610     5.7360 hc         1 LI1       0.058700
     57 H441        -5.1570     3.8200     5.7460 hc         1 LI1       0.031700
     58 H442        -5.6870     2.2210     5.2120 hc         1 LI1       0.031700
     59 H443        -6.0480     2.7630     6.8650 hc         1 LI1       0.031700
     60 H451        -4.8040     0.5090     7.6940 hc         1 LI1       0.036200
     61 H452        -4.6350     0.1870     5.9750 hc         1 LI1       0.036200
     62 H461        -2.1400     0.0550     6.2400 hc         1 LI1       0.040700
     63 H462        -2.3160     0.2580     7.9820 hc         1 LI1       0.040700
     64 H471        -3.7980    -1.7830     8.0320 hc         1 LI1       0.037200
     65 H472        -3.4340    -2.0640     6.3330 hc         1 LI1       0.037200
     66 H48         -1.4080    -2.0480     8.6350 hc         1 LI1       0.043700
     67 H491        -0.8950    -2.5420     5.6580 hc         1 LI1       0.032700
     68 H492        -0.2490    -1.2140     6.6510 hc         1 LI1       0.032700
     69 H493         0.2720    -2.8710     6.9560 hc         1 LI1       0.032700
     70 H501        -1.1060    -4.4730     8.1320 hc         1 LI1       0.037700
     71 H502        -2.3510    -4.3890     6.9010 hc         1 LI1       0.037700
     72 H511        -3.2170    -5.4420     8.9140 hc         1 LI1       0.037200
     73 H512        -4.0860    -3.9480     8.6350 hc         1 LI1       0.037200
     74 H521        -1.7900    -4.3110    10.6480 hc         1 LI1       0.039200
     75 H522        -2.6910    -2.8160    10.4070 hc         1 LI1       0.039200
     76 H531        -4.8050    -3.9610    11.1130 hc         1 LI1       0.036200
     77 H532        -3.9070    -5.4590    11.3630 hc         1 LI1       0.036200
     78 H551        -3.4400    -2.8320    12.8820 hc         1 LI1       0.037200
     79 H552        -2.5040    -4.3090    13.1150 hc         1 LI1       0.037200
     80 H561        -5.5200    -4.0360    13.5850 hc         1 LI1       0.037200
     81 H562        -4.5930    -5.5190    13.8230 hc         1 LI1       0.037200
     82 H571        -3.1810    -4.3200    15.5490 hc         1 LI1       0.038200
     83 H572        -4.1950    -2.9000    15.3640 hc         1 LI1       0.038200
     84 H58         -5.1380    -5.6440    16.3370 hc         1 LI1       0.043700
     85 H591        -6.7130    -3.0130    16.1830 hc         1 LI1       0.031867
     86 H592        -7.2590    -4.4770    17.0260 hc         1 LI1       0.031867
     87 H593        -7.0420    -4.5050    15.2730 hc         1 LI1       0.031867
     88 H601        -4.6710    -3.0890    17.9670 hc         1 LI1       0.031867
     89 H602        -3.6380    -4.5350    17.9800 hc         1 LI1       0.031867
     90 H603        -5.3010    -4.6300    18.5890 hc         1 LI1       0.031867
     91 H111         1.6550     6.5040     8.9910 h1         1 LI1       0.020700
     92 H112         0.2600     5.9070     9.9120 h1         1 LI1       0.020700
     93 H121         2.6010     4.2590     8.8280 hc         1 LI1       0.046200
     94 H122         2.2830     4.6360    10.5120 hc         1 LI1       0.046200
     95 H13          0.5860     2.8280     8.7130 hc         1 LI1       0.066700
     96 H141         2.8060     1.8800     9.4220 hc         1 LI1       0.031367
     97 H142         2.3210     2.0610    11.1210 hc         1 LI1       0.031367
     98 H143         1.4380     0.9530    10.0450 hc         1 LI1       0.031367
     99 H151         0.1390     3.5750    11.6490 hc         1 LI1       0.033700
    100 H152        -0.8940     3.9860    10.2850 hc         1 LI1       0.033700
    101 H161        -0.4560     1.2030    11.4620 hc         1 LI1       0.039700
    102 H162        -1.2550     1.4730     9.9120 hc         1 LI1       0.039700
    103 H171        -3.0110     2.8390    11.0150 hc         1 LI1       0.035200
    104 H172        -2.1330     2.7670    12.5360 hc         1 LI1       0.035200
    105 H18         -2.5330     0.3180    12.6910 hc         1 LI1       0.045700
    106 H191        -4.0980     0.6020    10.0770 hc         1 LI1       0.033700
    107 H192        -2.6230    -0.3570    10.3440 hc         1 LI1       0.033700
    108 H193        -4.1330    -0.8270    11.1290 hc         1 LI1       0.033700
    109 H201        -4.9930     0.3310    13.0810 hc         1 LI1       0.036700
    110 H202        -5.1510     1.8200    12.1770 hc         1 LI1       0.036700
    111 H211        -3.9500     3.0940    13.8910 hc         1 LI1       0.037200
    112 H212        -5.2750     2.2200    14.6060 hc         1 LI1       0.037200
    113 H221        -2.3050     1.4780    14.7680 hc         1 LI1       0.037200
    114 H222        -3.2710     2.1600    16.0510 hc         1 LI1       0.037200
    115 H23         -3.6190    -0.6140    14.8150 hc         1 LI1       0.045700
    116 H241        -1.5870    -0.5060    16.1460 hc         1 LI1       0.031700
    117 H242        -2.4620     0.1710    17.5320 hc         1 LI1       0.031700
    118 H243        -2.7910    -1.4910    16.9940 hc         1 LI1       0.031700
    119 H251        -5.2320    -1.1500    16.5750 hc         1 LI1       0.036700
    120 H252        -5.8260     0.1020    15.5150 hc         1 LI1       0.036700
    121 H261        -4.6550     0.5680    18.3140 hc         1 LI1       0.039700
    122 H262        -5.2800     1.8340    17.2550 hc         1 LI1       0.039700
    123 H271        -7.5420     0.7400    17.2860 hc         1 LI1       0.035200
    124 H272        -6.9230    -0.5240    18.3330 hc         1 LI1       0.035200
    125 H28         -8.2330     1.0920    19.5860 hc         1 LI1       0.041700
    126 H291        -6.7400     1.5560    21.4610 hc         1 LI1       0.031033
    127 H292        -6.3320    -0.0240    20.7660 hc         1 LI1       0.031033
    128 H293        -5.3040     1.3890    20.4330 hc         1 LI1       0.031033
    129 H301        -7.6560     3.4440    19.9010 hc         1 LI1       0.031033
    130 H302        -6.2300     3.2920    18.8590 hc         1 LI1       0.031033
    131 H303        -7.8600     3.1180    18.1690 hc         1 LI1       0.031033
@<TRIPOS>BOND
     1     1     2 1   
     2     1     4 1   
     3     1    46 1   
     4     1    47 1   
     5     2     3 1   
     6     2     5 1   
     7     2    48 1   
     8     3     6 1   
     9     3    49 1   
    10     3    50 1   
    11     4    26 1   
    12     5     7 1   
    13     6    51 1   
    14     7     8 1   
    15     7    52 1   
    16     7    53 1   
    17     8     9 1   
    18     8    54 1   
    19     8    55 1   
    20     9    10 1   
    21     9    11 1   
    22     9    56 1   
    23    10    57 1   
    24    10    58 1   
    25    10    59 1   
    26    11    12 1   
    27    11    60 1   
    28    11    61 1   
    29    12    13 1   
    30    12    62 1   
    31    12    63 1   
    32    13    14 1   
    33    13    64 1   
    34    13    65 1   
    35    14    15 1   
    36    14    16 1   
    37    14    66 1   
    38    15    67 1   
    39    15    68 1   
    40    15    69 1   
    41    16    17 1   
    42    16    70 1   
    43    16    71 1   
    44    17    18 1   
    45    17    72 1   
    46    17    73 1   
    47    18    19 1   
    48    18    74 1   
    49    18    75 1   
    50    19    20 1   
    51    19    76 1   
    52    19    77 1   
    53    20    21 1   
    54    20    78 1   
    55    20    79 1   
    56    21    22 1   
    57    21    80 1   
    58    21    81 1   
    59    22    23 1   
    60    22    82 1   
    61    22    83 1   
    62    23    24 1   
    63    23    25 1   
    64    23    84 1   
    65    24    85 1   
    66    24    86 1   
    67    24    87 1   
    68    25    88 1   
    69    25    89 1   
    70    25    90 1   
    71    26    27 1   
    72    26    91 1   
    73    26    92 1   
    74    27    28 1   
    75    27    93 1   
    76    27    94 1   
    77    28    29 1   
    78    28    30 1   
    79    28    95 1   
    80    29    96 1   
    81    29    97 1   
    82    29    98 1   
    83    30    31 1   
    84    30    99 1   
    85    30   100 1   
    86    31    32 1   
    87    31   101 1   
    88    31   102 1   
    89    32    33 1   
    90    32   103 1   
    91    32   104 1   
    92    33    34 1   
    93    33    35 1   
    94    33   105 1   
    95    34   106 1   
    96    34   107 1   
    97    34   108 1   
    98    35    36 1   
    99    35   109 1   
   100    35   110 1   
   101    36    37 1   
   102    36   111 1   
   103    36   112 1   
   104    37    38 1   
   105    37   113 1   
   106    37   114 1   
   107    38    39 1   
   108    38    40 1   
   109    38   115 1   
   110    39   116 1   
   111    39   117 1   
   112    39   118 1   
   113    40    41 1   
   114    40   119 1   
   115    40   120 1   
   116    41    42 1   
   117    41   121 1   
   118    41   122 1   
   119    42    43 1   
   120    42   123 1   
   121    42   124 1   
   122    43    44 1   
   123    43    45 1   
   124    43   125 1   
   125    44   126 1   
   126    44   127 1   
   127    44   128 1   
   128    45   129 1   
   129    45   130 1   
   130    45   131 1   
@<TRIPOS>SUBSTRUCTURE
     1 LI1         1 TEMP              0 ****  ****    0 ROOT
