@<TRIPOS>MOLECULE
LI2
   58    62     1     0     0
SMALL
No Charge or Current Charge


@<TRIPOS>ATOM
      1 F1           3.7910    -0.5660     4.9140 f          1 LI2      -0.179000
      2 C2           2.5890    -0.3730     4.3320 ca         1 LI2       0.204000
      3 C3           1.4460    -0.2640     5.1300 ca         1 LI2      -0.214000
      4 C4           0.1900    -0.0690     4.5350 ca         1 LI2       0.338000
      5 C5           0.1020     0.0200     3.1330 ca         1 LI2      -0.137000
      6 C6           1.2470    -0.0860     2.3070 ca         1 LI2      -0.090600
      7 C7           2.5020    -0.2870     2.9350 ca         1 LI2      -0.183000
      8 C8           1.0960     0.0200     0.7950 c          1 LI2       0.615700
      9 O9          -0.0030     0.1890     0.2770 o          1 LI2      -0.587100
     10 N10          2.2750    -0.0930     0.0640 ns         1 LI2      -0.139000
     11 C11          2.5510    -0.0410    -1.3320 ca         1 LI2      -0.059000
     12 C12          3.8930    -0.2630    -1.7390 ca         1 LI2      -0.135000
     13 C13          4.2570    -0.2300    -3.1030 ca         1 LI2      -0.100000
     14 C14          3.2510     0.0300    -4.0400 ca         1 LI2      -0.067200
     15 N15          3.3410     0.1160    -5.4180 na         1 LI2      -0.220700
     16 C17          2.0710     0.3980    -5.9660 cc         1 LI2      -0.153100
     17 C18          1.2140     0.4770    -4.8740 cd         1 LI2      -0.142400
     18 C19         -0.2650     0.7600    -4.9440 c3         1 LI2       0.002800
     19 C20         -1.1180    -0.5090    -4.7440 c3         1 LI2      -0.037100
     20 C21         -2.6090    -0.2080    -4.7630 ca         1 LI2      -0.039300
     21 C22         -3.3470    -0.2520    -5.9590 ca         1 LI2      -0.163000
     22 C23         -4.7220     0.0380    -5.9310 ca         1 LI2       0.333400
     23 N24         -5.3840     0.3630    -4.7960 nb         1 LI2      -0.669000
     24 C25         -4.6740     0.4060    -3.6450 ca         1 LI2       0.333400
     25 C26         -3.2970     0.1310    -3.5850 ca         1 LI2      -0.163000
     26 C27          1.9600     0.2460    -3.6580 ca         1 LI2      -0.075800
     27 C28          1.5620     0.2220    -2.3150 ca         1 LI2      -0.079000
     28 N29         -0.9800     0.0430     5.3240 nh         1 LI2      -0.791400
     29 C30         -0.9260     0.5800     6.7240 c6         1 LI2       0.165300
     30 C31         -2.3100     1.1080     7.2050 c6         1 LI2       0.145100
     31 O32         -3.3380     0.1080     7.0100 os         1 LI2      -0.441000
     32 C33         -3.4810    -0.2750     5.6220 c6         1 LI2       0.145100
     33 C34         -2.1480    -0.8640     5.0700 c6         1 LI2       0.165300
     34 H3           1.5440    -0.3460     6.2060 ha         1 LI2       0.133000
     35 H5          -0.8720     0.1890     2.6840 ha         1 LI2       0.140000
     36 H7           3.4200    -0.3770     2.3610 ha         1 LI2       0.133000
     37 H10          3.0980    -0.2390     0.6330 hn         1 LI2       0.154000
     38 H12          4.6590    -0.4630    -0.9930 ha         1 LI2       0.108000
     39 H13          5.2850    -0.4000    -3.4130 ha         1 LI2       0.115000
     40 H15          4.1970    -0.0060    -5.9520 hn         1 LI2       0.350000
     41 H17          1.8900     0.5120    -7.0320 h4         1 LI2       0.212000
     42 H191        -0.5370     1.4990    -4.1800 hc         1 LI2       0.050200
     43 H192        -0.5170     1.2110    -5.9120 hc         1 LI2       0.050200
     44 H201        -0.8670    -1.2340    -5.5280 hc         1 LI2       0.055200
     45 H202        -0.8440    -0.9820    -3.7930 hc         1 LI2       0.055200
     46 H22         -2.8680    -0.5040    -6.9010 ha         1 LI2       0.123500
     47 H23         -5.3130     0.0100    -6.8460 h4         1 LI2       0.016100
     48 H25         -5.2260     0.6710    -2.7440 h4         1 LI2       0.016100
     49 H26         -2.7780     0.1830    -2.6310 ha         1 LI2       0.123500
     50 H28          0.5230     0.4060    -2.0640 ha         1 LI2       0.147000
     51 H301        -0.5900    -0.2070     7.4150 h1         1 LI2       0.051700
     52 H302        -0.2010     1.4050     6.7880 h1         1 LI2       0.051700
     53 H311        -2.2590     1.3700     8.2710 h1         1 LI2       0.056450
     54 H312        -2.5780     2.0160     6.6440 h1         1 LI2       0.056450
     55 H331        -4.2820    -1.0220     5.5340 h1         1 LI2       0.056450
     56 H332        -3.7710     0.6060     5.0310 h1         1 LI2       0.056450
     57 H341        -2.2750    -1.0510     3.9940 h1         1 LI2       0.051700
     58 H342        -1.9700    -1.8390     5.5460 h1         1 LI2       0.051700
@<TRIPOS>BOND
     1     1     2 1   
     2     2     3 ar  
     3     2     7 ar  
     4     3     4 ar  
     5     3    34 1   
     6     4     5 ar  
     7     4    28 1   
     8     5     6 ar  
     9     5    35 1   
    10     6     7 ar  
    11     6     8 1   
    12     7    36 1   
    13     8     9 2   
    14     8    10 1   
    15    10    11 1   
    16    10    37 1   
    17    11    12 ar  
    18    11    27 ar  
    19    12    13 ar  
    20    12    38 1   
    21    13    14 ar  
    22    13    39 1   
    23    14    15 1   
    24    14    26 ar  
    25    15    16 1   
    26    15    40 1   
    27    16    17 2   
    28    16    41 1   
    29    17    18 1   
    30    17    26 1   
    31    18    19 1   
    32    18    42 1   
    33    18    43 1   
    34    19    20 1   
    35    19    44 1   
    36    19    45 1   
    37    20    21 ar  
    38    20    25 ar  
    39    21    22 ar  
    40    21    46 1   
    41    22    23 ar  
    42    22    47 1   
    43    23    24 ar  
    44    24    25 ar  
    45    24    48 1   
    46    25    49 1   
    47    26    27 ar  
    48    27    50 1   
    49    28    29 1   
    50    28    33 1   
    51    29    30 1   
    52    29    51 1   
    53    29    52 1   
    54    30    31 1   
    55    30    53 1   
    56    30    54 1   
    57    31    32 1   
    58    32    33 1   
    59    32    55 1   
    60    32    56 1   
    61    33    57 1   
    62    33    58 1   
@<TRIPOS>SUBSTRUCTURE
     1 LI2         1 TEMP              0 ****  ****    0 ROOT
