@<TRIPOS>MOLECULE
LI2
   58    62     1     0     0
SMALL
bcc


@<TRIPOS>ATOM
      1 F1           3.7500     0.2320     4.9790 f          1 LI2      -0.143900
      2 C2           2.5820     0.2320     4.3180 ca         1 LI2       0.168900
      3 C3           1.4230     0.1490     5.0620 ca         1 LI2      -0.232000
      4 C4           0.1800     0.1710     4.4120 ca         1 LI2       0.199600
      5 C5           0.1860     0.2530     3.0090 ca         1 LI2      -0.155000
      6 C6           1.3710     0.3060     2.2930 ca         1 LI2      -0.090600
      7 C7           2.6040     0.3080     2.9430 ca         1 LI2      -0.201000
      8 C8           1.2600     0.4110     0.8010 c          1 LI2       0.682700
      9 O9           0.2840     0.9250     0.2790 o          1 LI2      -0.587100
     10 N10          2.2970    -0.1160     0.1140 ns         1 LI2      -0.465100
     11 C11          2.5250    -0.1080    -1.2740 ca         1 LI2       0.033600
     12 C12          3.8450    -0.4060    -1.6790 ca         1 LI2      -0.153000
     13 C13          4.2070    -0.4480    -3.0080 ca         1 LI2      -0.118000
     14 C14          3.2230    -0.1810    -3.9560 ca         1 LI2      -0.067200
     15 N15          3.2730    -0.1410    -5.3180 na         1 LI2      -0.170400
     16 C17          2.0330     0.1670    -5.8040 cc         1 LI2      -0.103100
     17 C18          1.1500     0.3360    -4.7730 cd         1 LI2      -0.142400
     18 C19         -0.3090     0.6340    -4.8600 c3         1 LI2       0.002800
     19 C20         -1.1730    -0.6110    -4.5970 c3         1 LI2      -0.037100
     20 C21         -2.6320    -0.2690    -4.5770 ca         1 LI2      -0.039300
     21 C22         -3.3980    -0.2670    -5.7380 ca         1 LI2      -0.246300
     22 C23         -4.7320     0.1050    -5.6710 ca         1 LI2       0.398700
     23 N24         -5.3390     0.4670    -4.5460 nb         1 LI2      -0.669000
     24 C25         -4.6090     0.4650    -3.4360 ca         1 LI2       0.398700
     25 C26         -3.2700     0.1110    -3.4000 ca         1 LI2      -0.246300
     26 C27          1.8990     0.1160    -3.5730 ca         1 LI2      -0.075800
     27 C28          1.5460     0.1500    -2.2190 ca         1 LI2      -0.097000
     28 N29         -1.0070     0.1490     5.1180 nh         1 LI2      -0.653000
     29 C30         -0.9630     0.0490     6.5650 c6         1 LI2       0.165300
     30 C31         -2.2980     0.4520     7.1650 c6         1 LI2       0.121900
     31 O32         -3.3670    -0.2910     6.6320 os         1 LI2      -0.394600
     32 C33         -3.4350    -0.1020     5.2380 c6         1 LI2       0.121900
     33 C34         -2.1580    -0.5410     4.5500 c6         1 LI2       0.165300
     34 H3           1.5120     0.0610     6.1350 ha         1 LI2       0.151000
     35 H5          -0.7390     0.2940     2.4540 ha         1 LI2       0.158000
     36 H7           3.5480     0.4060     2.4230 ha         1 LI2       0.151000
     37 H10          3.0140    -0.5750     0.6540 hn         1 LI2       0.320500
     38 H12          4.5960    -0.6030    -0.9230 ha         1 LI2       0.126000
     39 H13          5.2260    -0.6770    -3.2930 ha         1 LI2       0.133000
     40 H15          4.0870    -0.3110    -5.8830 hn         1 LI2       0.299700
     41 H17          1.8650     0.2450    -6.8670 h4         1 LI2       0.162000
     42 H191        -0.5750     1.4100    -4.1350 hc         1 LI2       0.050200
     43 H192        -0.5540     1.0370    -5.8450 hc         1 LI2       0.050200
     44 H201        -0.9720    -1.3550    -5.3700 hc         1 LI2       0.055200
     45 H202        -0.8880    -1.0570    -3.6410 hc         1 LI2       0.055200
     46 H22         -2.9670    -0.5540    -6.6890 ha         1 LI2       0.141500
     47 H23         -5.3380     0.1090    -6.5700 h4         1 LI2       0.016100
     48 H25         -5.1160     0.7570    -2.5220 h4         1 LI2       0.016100
     49 H26         -2.7330     0.1260    -2.4590 ha         1 LI2       0.141500
     50 H28          0.5310     0.3720    -1.9290 ha         1 LI2       0.165000
     51 H301        -0.6900    -0.9650     6.8900 h1         1 LI2       0.051700
     52 H302        -0.2160     0.7350     6.9660 h1         1 LI2       0.051700
     53 H311        -2.2770     0.2800     8.2420 h1         1 LI2       0.056450
     54 H312        -2.4560     1.5270     6.9970 h1         1 LI2       0.056450
     55 H331        -4.2710    -0.6940     4.8620 h1         1 LI2       0.056450
     56 H332        -3.6310     0.9530     5.0020 h1         1 LI2       0.056450
     57 H341        -2.2640    -0.3170     3.4920 h1         1 LI2       0.051700
     58 H342        -2.0370    -1.6300     4.6440 h1         1 LI2       0.051700
@<TRIPOS>BOND
     1     1     2 1   
     2     2     3 ar  
     3     2     7 ar  
     4     3     4 ar  
     5     3    34 1   
     6     4     5 ar  
     7     4    28 1   
     8     5     6 ar  
     9     5    35 1   
    10     6     7 ar  
    11     6     8 1   
    12     7    36 1   
    13     8     9 2   
    14     8    10 1   
    15    10    11 1   
    16    10    37 1   
    17    11    12 ar  
    18    11    27 ar  
    19    12    13 ar  
    20    12    38 1   
    21    13    14 ar  
    22    13    39 1   
    23    14    15 1   
    24    14    26 ar  
    25    15    16 1   
    26    15    40 1   
    27    16    17 2   
    28    16    41 1   
    29    17    18 1   
    30    17    26 1   
    31    18    19 1   
    32    18    42 1   
    33    18    43 1   
    34    19    20 1   
    35    19    44 1   
    36    19    45 1   
    37    20    21 ar  
    38    20    25 ar  
    39    21    22 ar  
    40    21    46 1   
    41    22    23 ar  
    42    22    47 1   
    43    23    24 ar  
    44    24    25 ar  
    45    24    48 1   
    46    25    49 1   
    47    26    27 ar  
    48    27    50 1   
    49    28    29 1   
    50    28    33 1   
    51    29    30 1   
    52    29    51 1   
    53    29    52 1   
    54    30    31 1   
    55    30    53 1   
    56    30    54 1   
    57    31    32 1   
    58    32    33 1   
    59    32    55 1   
    60    32    56 1   
    61    33    57 1   
    62    33    58 1   
@<TRIPOS>SUBSTRUCTURE
     1 LI2         1 TEMP              0 ****  ****    0 ROOT
