@<TRIPOS>MOLECULE
LI3
   43    46     1     0     0
SMALL
abcg2


@<TRIPOS>ATOM
      1 F1          -3.7180     1.0420     2.2850 f          1 LI3      -0.179000
      2 C2          -2.4250     0.7350     2.0990 ca         1 LI3       0.202000
      3 C3          -1.6600     0.4700     3.2170 ca         1 LI3      -0.214000
      4 C4          -0.3010     0.1600     3.0670 ca         1 LI3       0.334000
      5 C5           0.2270     0.1690     1.7650 ca         1 LI3      -0.135000
      6 C6          -0.5740     0.4310     0.6660 ca         1 LI3      -0.091600
      7 C7          -1.9290     0.7230     0.8140 ca         1 LI3      -0.181000
      8 C8           0.0790     0.4150    -0.6820 c          1 LI3       0.612700
      9 O9           1.2470     0.7350    -0.8240 o          1 LI3      -0.581100
     10 N10         -0.7230     0.0130    -1.6950 ns         1 LI3      -0.142000
     11 C11         -0.3650    -0.1240    -3.0500 ca         1 LI3      -0.068000
     12 C12         -0.9770    -1.1750    -3.7640 ca         1 LI3      -0.129000
     13 C13         -0.7250    -1.3820    -5.1030 ca         1 LI3      -0.105000
     14 C14          0.1720    -0.5220    -5.7330 ca         1 LI3      -0.066200
     15 N15          0.6160    -0.4820    -7.0220 na         1 LI3      -0.222700
     16 C17          1.4900     0.5560    -7.1670 cc         1 LI3      -0.162100
     17 C18          1.6310     1.2120    -5.9780 cd         1 LI3      -0.238200
     18 C19          0.7940     0.5370    -5.0370 ca         1 LI3      -0.081800
     19 C20          0.5140     0.7390    -3.6800 ca         1 LI3      -0.063000
     20 N21          0.4890    -0.1710     4.1510 nh         1 LI3      -0.793400
     21 C22         -0.1080    -0.1790     5.4740 c6         1 LI3       0.165300
     22 C23          0.7790    -0.9300     6.4500 c6         1 LI3       0.145100
     23 O24          2.0890    -0.4160     6.4800 os         1 LI3      -0.441000
     24 C25          2.6690    -0.5170     5.2010 c6         1 LI3       0.145100
     25 C26          1.8820     0.2580     4.1630 c6         1 LI3       0.165300
     26 H3          -2.1340     0.5310     4.1860 ha         1 LI3       0.133000
     27 H5           1.2680    -0.0610     1.5940 ha         1 LI3       0.139000
     28 H7          -2.5710     0.9710    -0.0210 ha         1 LI3       0.136000
     29 H10         -1.6120    -0.3890    -1.4400 hn         1 LI3       0.154000
     30 H12         -1.6610    -1.8360    -3.2450 ha         1 LI3       0.109000
     31 H13         -1.2040    -2.1920    -5.6370 ha         1 LI3       0.114000
     32 H15          0.3480    -1.1160    -7.7560 hn         1 LI3       0.348000
     33 H17          1.9540     0.7510    -8.1210 h4         1 LI3       0.211000
     34 H18          2.2550     2.0720    -5.7950 ha         1 LI3       0.208000
     35 H20          0.9700     1.5630    -3.1510 ha         1 LI3       0.140000
     36 H221        -0.2980     0.8410     5.8390 h1         1 LI3       0.052700
     37 H222        -1.0650    -0.7010     5.4450 h1         1 LI3       0.052700
     38 H231         0.3630    -0.8440     7.4550 h1         1 LI3       0.055200
     39 H232         0.7930    -1.9940     6.1770 h1         1 LI3       0.055200
     40 H251         3.6820    -0.1160     5.2620 h1         1 LI3       0.055200
     41 H252         2.7380    -1.5700     4.8930 h1         1 LI3       0.055200
     42 H261         2.3500     0.0780     3.1990 h1         1 LI3       0.052700
     43 H262         1.9520     1.3360     4.3660 h1         1 LI3       0.052700
@<TRIPOS>BOND
     1     1     2 1   
     2     2     3 ar  
     3     2     7 ar  
     4     3     4 ar  
     5     3    26 1   
     6     4     5 ar  
     7     4    20 1   
     8     5     6 ar  
     9     5    27 1   
    10     6     7 ar  
    11     6     8 1   
    12     7    28 1   
    13     8     9 2   
    14     8    10 1   
    15    10    11 1   
    16    10    29 1   
    17    11    12 ar  
    18    11    19 ar  
    19    12    13 ar  
    20    12    30 1   
    21    13    14 ar  
    22    13    31 1   
    23    14    15 1   
    24    14    18 ar  
    25    15    16 1   
    26    15    32 1   
    27    16    17 2   
    28    16    33 1   
    29    17    18 1   
    30    17    34 1   
    31    18    19 ar  
    32    19    35 1   
    33    20    21 1   
    34    20    25 1   
    35    21    22 1   
    36    21    36 1   
    37    21    37 1   
    38    22    23 1   
    39    22    38 1   
    40    22    39 1   
    41    23    24 1   
    42    24    25 1   
    43    24    40 1   
    44    24    41 1   
    45    25    42 1   
    46    25    43 1   
@<TRIPOS>SUBSTRUCTURE
     1 LI3         1 TEMP              0 ****  ****    0 ROOT
