@<TRIPOS>MOLECULE
LI3
   43    46     1     0     0
SMALL
No Charge or Current Charge


@<TRIPOS>ATOM
      1 F1          -3.8560     0.0200     2.1860 f          1 LI3      -0.179000
      2 C2          -2.5100     0.0080     2.0790 ca         1 LI3       0.202000
      3 C3          -1.7270    -0.0010     3.2370 ca         1 LI3      -0.214000
      4 C4          -0.3270    -0.0080     3.1380 ca         1 LI3       0.334000
      5 C5           0.2690    -0.0110     1.8630 ca         1 LI3      -0.135000
      6 C6          -0.5060    -0.0030     0.6780 ca         1 LI3      -0.091600
      7 C7          -1.9170     0.0070     0.8090 ca         1 LI3      -0.181000
      8 C8           0.1910    -0.0100    -0.6760 c          1 LI3       0.612700
      9 O9           1.4150    -0.0150    -0.7610 o          1 LI3      -0.581100
     10 N10         -0.6510    -0.0080    -1.7850 ns         1 LI3      -0.142000
     11 C11         -0.3980    -0.0120    -3.1860 ca         1 LI3      -0.068000
     12 C12         -1.5260    -0.0070    -4.0500 ca         1 LI3      -0.129000
     13 C13         -1.3720    -0.0110    -5.4540 ca         1 LI3      -0.105000
     14 C14         -0.0710    -0.0180    -5.9680 ca         1 LI3      -0.066200
     15 N15          0.3510    -0.0230    -7.2890 na         1 LI3      -0.222700
     16 C17          1.7630    -0.0300    -7.3470 cc         1 LI3      -0.162100
     17 C18          2.1600    -0.0300    -6.0170 cd         1 LI3      -0.238200
     18 C19          1.0160    -0.0230    -5.1440 ca         1 LI3      -0.081800
     19 C20          0.9070    -0.0190    -3.7480 ca         1 LI3      -0.063000
     20 N21          0.4850    -0.0160     4.2970 nh         1 LI3      -0.793400
     21 C22          0.0040    -0.6280     5.5800 c6         1 LI3       0.165300
     22 C23          1.1810    -1.0060     6.5290 c6         1 LI3       0.145100
     23 O24          2.0660     0.1220     6.7250 os         1 LI3      -0.441000
     24 C25          2.6460     0.5930     5.4850 c6         1 LI3       0.145100
     25 C26          1.5340     1.0400     4.4890 c6         1 LI3       0.165300
     26 H3          -2.2150     0.0120     4.2050 ha         1 LI3       0.133000
     27 H5           1.3530    -0.0340     1.7970 ha         1 LI3       0.139000
     28 H7          -2.5720     0.0140    -0.0580 ha         1 LI3       0.136000
     29 H10         -1.6340    -0.0030    -1.5530 hn         1 LI3       0.154000
     30 H12         -2.5290    -0.0020    -3.6290 ha         1 LI3       0.109000
     31 H13         -2.2380    -0.0070    -6.1120 ha         1 LI3       0.114000
     32 H15         -0.2690    -0.0210    -8.0940 hn         1 LI3       0.348000
     33 H17          2.3300    -0.0350    -8.2750 h4         1 LI3       0.211000
     34 H18          3.1970    -0.0350    -5.6850 ha         1 LI3       0.208000
     35 H20          1.8070    -0.0230    -3.1430 ha         1 LI3       0.140000
     36 H221        -0.6600     0.0730     6.1060 h1         1 LI3       0.052700
     37 H222        -0.5770    -1.5390     5.3730 h1         1 LI3       0.052700
     38 H231         0.7860    -1.3280     7.5030 h1         1 LI3       0.055200
     39 H232         1.7520    -1.8430     6.1000 h1         1 LI3       0.055200
     40 H251         3.3170     1.4360     5.6980 h1         1 LI3       0.055200
     41 H252         3.2440    -0.2140     5.0370 h1         1 LI3       0.055200
     42 H261         2.0130     1.2980     3.5330 h1         1 LI3       0.052700
     43 H262         1.0680     1.9600     4.8720 h1         1 LI3       0.052700
@<TRIPOS>BOND
     1     1     2 1   
     2     2     3 ar  
     3     2     7 ar  
     4     3     4 ar  
     5     3    26 1   
     6     4     5 ar  
     7     4    20 1   
     8     5     6 ar  
     9     5    27 1   
    10     6     7 ar  
    11     6     8 1   
    12     7    28 1   
    13     8     9 2   
    14     8    10 1   
    15    10    11 1   
    16    10    29 1   
    17    11    12 ar  
    18    11    19 ar  
    19    12    13 ar  
    20    12    30 1   
    21    13    14 ar  
    22    13    31 1   
    23    14    15 1   
    24    14    18 ar  
    25    15    16 1   
    26    15    32 1   
    27    16    17 2   
    28    16    33 1   
    29    17    18 1   
    30    17    34 1   
    31    18    19 ar  
    32    19    35 1   
    33    20    21 1   
    34    20    25 1   
    35    21    22 1   
    36    21    36 1   
    37    21    37 1   
    38    22    23 1   
    39    22    38 1   
    40    22    39 1   
    41    23    24 1   
    42    24    25 1   
    43    24    40 1   
    44    24    41 1   
    45    25    42 1   
    46    25    43 1   
@<TRIPOS>SUBSTRUCTURE
     1 LI3         1 TEMP              0 ****  ****    0 ROOT
