@<TRIPOS>MOLECULE
LI4
   33    35     1     0     0
SMALL
No Charge or Current Charge


@<TRIPOS>ATOM
      1 C1          -1.9600    -0.0720     4.2010 ca         1 LI4      -0.181000
      2 C2          -1.5310    -0.0840     2.8600 ca         1 LI4      -0.131000
      3 C3          -0.1420    -0.0310     2.6130 ca         1 LI4       0.036100
      4 C4           0.7210     0.0280     3.7430 ca         1 LI4       0.579900
      5 C6          -1.0090    -0.0060     5.2380 ca         1 LI4       0.349900
      6 O10          0.3860    -0.0300     1.3270 os         1 LI4      -0.349100
      7 N12          2.0650     0.0920     3.6740 nv         1 LI4      -1.039900
      8 C13         -1.6650     0.0600    -2.5310 ca         1 LI4      -0.109000
      9 C15         -0.2550    -0.0030    -2.4080 ca         1 LI4      -0.026000
     10 C16          0.5300     0.0050    -3.5890 ca         1 LI4      -0.037000
     11 C17         -0.0860     0.0790    -4.8530 ca         1 LI4      -0.094000
     12 C18         -1.4830     0.1430    -4.9570 ca         1 LI4      -0.109000
     13 C19         -2.2710     0.1320    -3.7970 ca         1 LI4      -0.102000
     14 C23          0.3820    -0.0750    -1.1370 ca         1 LI4      -0.080300
     15 C24          1.7950    -0.1490    -1.0860 ca         1 LI4      -0.079000
     16 C25          2.5600    -0.1410    -2.2610 ca         1 LI4      -0.110000
     17 C26          1.9310    -0.0620    -3.5100 ca         1 LI4      -0.094000
     18 N3           0.3240     0.0460     5.0150 nb         1 LI4      -0.727000
     19 C9          -0.4510    -0.0810     0.1560 c3         1 LI4       0.211900
     20 H1          -3.0180    -0.1110     4.4430 ha         1 LI4       0.123000
     21 H2          -2.2640    -0.1320     2.0590 ha         1 LI4       0.118000
     22 H6          -1.3270     0.0060     6.2800 h4         1 LI4       0.019100
     23 H121         2.5290     0.4080     4.5170 hn         1 LI4       0.469000
     24 H122         2.4660     0.3790     2.7890 hn         1 LI4       0.469000
     25 H17          0.5190     0.0860    -5.7580 ha         1 LI4       0.114000
     26 H18         -1.9550     0.1990    -5.9360 ha         1 LI4       0.115000
     27 H19         -3.3550     0.1800    -3.8770 ha         1 LI4       0.113000
     28 H24          2.3170    -0.2140    -0.1340 ha         1 LI4       0.125000
     29 H25          3.6450    -0.1970    -2.2030 ha         1 LI4       0.115000
     30 H26          2.5340    -0.0570    -4.4150 ha         1 LI4       0.115000
     31 H9C1        -1.0660    -0.9900     0.1720 h1         1 LI4       0.043700
     32 H9C2        -1.1230     0.7870     0.1470 h1         1 LI4       0.043700
     33 H13         -2.3110     0.0510    -1.6580 ha         1 LI4       0.108000
@<TRIPOS>BOND
     1     1     2 ar  
     2     1     5 ar  
     3     1    20 1   
     4     2     3 ar  
     5     2    21 1   
     6     3     4 ar  
     7     3     6 1   
     8     4     7 1   
     9     4    18 ar  
    10     5    18 ar  
    11     5    22 1   
    12     6    19 1   
    13     7    23 1   
    14     7    24 1   
    15     8     9 ar  
    16     8    13 ar  
    17     8    33 1   
    18     9    10 ar  
    19     9    14 ar  
    20    10    11 ar  
    21    10    17 ar  
    22    11    12 ar  
    23    11    25 1   
    24    12    13 ar  
    25    12    26 1   
    26    13    27 1   
    27    14    15 ar  
    28    14    19 1   
    29    15    16 ar  
    30    15    28 1   
    31    16    17 ar  
    32    16    29 1   
    33    17    30 1   
    34    19    31 1   
    35    19    32 1   
@<TRIPOS>SUBSTRUCTURE
     1 LI4         1 TEMP              0 ****  ****    0 ROOT
