@<TRIPOS>MOLECULE
LI4
   33    35     1     0     0
SMALL
abcg2


@<TRIPOS>ATOM
      1 C1          -1.9840    -0.0540     4.1160 ca         1 LI4      -0.181000
      2 C2          -1.5370    -0.0440     2.7900 ca         1 LI4      -0.131000
      3 C3          -0.1840    -0.0210     2.5400 ca         1 LI4       0.036100
      4 C4           0.7090     0.0050     3.6420 ca         1 LI4       0.579900
      5 C6          -1.0440    -0.0330     5.1190 ca         1 LI4       0.349900
      6 O10          0.3990    -0.0180     1.3220 os         1 LI4      -0.349100
      7 N12          2.0600    -0.0140     3.4300 nv         1 LI4      -1.039900
      8 C13         -1.6500     0.0540    -2.4490 ca         1 LI4      -0.109000
      9 C15         -0.2400     0.0070    -2.3220 ca         1 LI4      -0.026000
     10 C16          0.5410    -0.0010    -3.5090 ca         1 LI4      -0.037000
     11 C17         -0.1050     0.0390    -4.7660 ca         1 LI4      -0.094000
     12 C18         -1.4690     0.0850    -4.8550 ca         1 LI4      -0.109000
     13 C19         -2.2480     0.0910    -3.6810 ca         1 LI4      -0.102000
     14 C23          0.4170    -0.0330    -1.0570 ca         1 LI4      -0.080300
     15 C24          1.7850    -0.0820    -1.0100 ca         1 LI4      -0.079000
     16 C25          2.5550    -0.0890    -2.1920 ca         1 LI4      -0.110000
     17 C26          1.9520    -0.0490    -3.4140 ca         1 LI4      -0.094000
     18 N3           0.2710     0.0010     4.8870 nb         1 LI4      -0.727000
     19 C9          -0.4290    -0.0240     0.1860 c3         1 LI4       0.211900
     20 H1          -3.0410    -0.0740     4.3410 ha         1 LI4       0.123000
     21 H2          -2.2600    -0.0590     1.9860 ha         1 LI4       0.118000
     22 H6          -1.3440    -0.0390     6.1600 h4         1 LI4       0.019100
     23 H121         2.6160     0.2540     4.2260 hn         1 LI4       0.469000
     24 H122         2.4020     0.3570     2.5590 hn         1 LI4       0.469000
     25 H17          0.5030     0.0330    -5.6630 ha         1 LI4       0.114000
     26 H18         -1.9530     0.1160    -5.8220 ha         1 LI4       0.115000
     27 H19         -3.3270     0.1250    -3.7540 ha         1 LI4       0.113000
     28 H24          2.3030    -0.1180    -0.0610 ha         1 LI4       0.125000
     29 H25          3.6340    -0.1260    -2.1160 ha         1 LI4       0.115000
     30 H26          2.5420    -0.0550    -4.3220 ha         1 LI4       0.115000
     31 H9C1        -1.0830    -0.9060     0.1960 h1         1 LI4       0.043700
     32 H9C2        -1.0800     0.8600     0.1870 h1         1 LI4       0.043700
     33 H13         -2.2790     0.0590    -1.5690 ha         1 LI4       0.108000
@<TRIPOS>BOND
     1     1     2 ar  
     2     1     5 ar  
     3     1    20 1   
     4     2     3 ar  
     5     2    21 1   
     6     3     4 ar  
     7     3     6 1   
     8     4     7 1   
     9     4    18 ar  
    10     5    18 ar  
    11     5    22 1   
    12     6    19 1   
    13     7    23 1   
    14     7    24 1   
    15     8     9 ar  
    16     8    13 ar  
    17     8    33 1   
    18     9    10 ar  
    19     9    14 ar  
    20    10    11 ar  
    21    10    17 ar  
    22    11    12 ar  
    23    11    25 1   
    24    12    13 ar  
    25    12    26 1   
    26    13    27 1   
    27    14    15 ar  
    28    14    19 1   
    29    15    16 ar  
    30    15    28 1   
    31    16    17 ar  
    32    16    29 1   
    33    17    30 1   
    34    19    31 1   
    35    19    32 1   
@<TRIPOS>SUBSTRUCTURE
     1 LI4         1 TEMP              0 ****  ****    0 ROOT
