@<TRIPOS>MOLECULE
LI6
   23    24     1     0     0
SMALL
No Charge or Current Charge


@<TRIPOS>ATOM
      1 C4          -2.1020     1.2670    -0.0070 ca         1 LI6      -0.162000
      2 C5          -0.8260     0.6500    -0.0050 ca         1 LI6       0.092600
      3 C6          -0.7470    -0.7630    -0.0100 ca         1 LI6      -0.108800
      4 C7           0.5600    -1.4240    -0.0080 cc         1 LI6       0.185900
      5 C8           1.7000    -0.6570    -0.0000 cd         1 LI6      -0.119100
      6 C9           1.6710     0.8380     0.0060 c          1 LI6       0.553200
      7 O13          2.9530    -1.2080     0.0020 oh         1 LI6      -0.548100
      8 N10          0.3880     1.4330     0.0030 n          1 LI6      -0.266000
      9 C11          0.2960     2.9180     0.0090 c3         1 LI6       0.072300
     10 O14          0.6140    -2.7690    -0.0130 oh         1 LI6      -0.525100
     11 C3          -3.2750     0.4970    -0.0140 ca         1 LI6      -0.062000
     12 C2          -3.1920    -0.9000    -0.0200 ca         1 LI6      -0.146000
     13 C1          -1.9380    -1.5270    -0.0180 ca         1 LI6      -0.039000
     14 H4          -2.2080     2.3470    -0.0030 ha         1 LI6       0.121000
     15 H13          3.5960    -0.4550     0.0080 ho         1 LI6       0.496000
     16 H111         1.2830     3.3950     0.0140 h1         1 LI6       0.057367
     17 H112        -0.2410     3.2560    -0.8860 h1         1 LI6       0.057367
     18 H113        -0.2470     3.2490     0.9030 h1         1 LI6       0.057367
     19 H14          1.5760    -2.9710    -0.0100 ho         1 LI6       0.491000
     20 H3          -4.2470     0.9860    -0.0160 ha         1 LI6       0.117000
     21 H2          -4.1000    -1.4990    -0.0260 ha         1 LI6       0.121000
     22 H1          -1.9000    -2.6140    -0.0220 ha         1 LI6       0.134000
     23 O12          2.7130     1.4870     0.0120 o          1 LI6      -0.581000
@<TRIPOS>BOND
     1     1     2 ar  
     2     1    11 ar  
     3     1    14 1   
     4     2     3 ar  
     5     2     8 1   
     6     3     4 1   
     7     3    13 ar  
     8     4     5 2   
     9     4    10 1   
    10     5     6 1   
    11     5     7 1   
    12     6     8 1   
    13     6    23 2   
    14     7    15 1   
    15     8     9 1   
    16     9    16 1   
    17     9    17 1   
    18     9    18 1   
    19    10    19 1   
    20    11    12 ar  
    21    11    20 1   
    22    12    13 ar  
    23    12    21 1   
    24    13    22 1   
@<TRIPOS>SUBSTRUCTURE
     1 LI6         1 TEMP              0 ****  ****    0 ROOT
