@<TRIPOS>MOLECULE
LI6
   23    24     1     0     0
SMALL
bcc


@<TRIPOS>ATOM
      1 C4          -2.0610     1.2670    -0.0070 ca         1 LI6      -0.180000
      2 C5          -0.8010     0.6550    -0.0040 ca         1 LI6       0.092600
      3 C6          -0.7280    -0.7510    -0.0100 ca         1 LI6      -0.108800
      4 C7           0.5650    -1.3750    -0.0080 cc         1 LI6       0.185900
      5 C8           1.6740    -0.6020    -0.0010 cd         1 LI6      -0.119100
      6 C9           1.6050     0.8410     0.0050 c          1 LI6       0.695700
      7 O13          2.9020    -1.1620    -0.0000 oh         1 LI6      -0.509100
      8 N10          0.3580     1.4100     0.0030 n          1 LI6      -0.333000
      9 C11          0.2620     2.8620     0.0090 c3         1 LI6       0.072300
     10 O14          0.5950    -2.7130    -0.0130 oh         1 LI6      -0.486100
     11 C3          -3.2100     0.5040    -0.0140 ca         1 LI6      -0.080000
     12 C2          -3.1410    -0.8880    -0.0200 ca         1 LI6      -0.164000
     13 C1          -1.9090    -1.5050    -0.0170 ca         1 LI6      -0.057000
     14 H4          -2.1530     2.3430    -0.0020 ha         1 LI6       0.139000
     15 H13          3.5570    -0.4490     0.0090 ho         1 LI6       0.457000
     16 H111         1.2580     3.2850     0.0130 h1         1 LI6       0.057367
     17 H112        -0.2630     3.2140    -0.8780 h1         1 LI6       0.057367
     18 H113        -0.2680     3.2070     0.8960 h1         1 LI6       0.057367
     19 H14          1.5040    -3.0390    -0.0090 ho         1 LI6       0.452000
     20 H3          -4.1720     1.0000    -0.0160 ha         1 LI6       0.135000
     21 H2          -4.0440    -1.4820    -0.0260 ha         1 LI6       0.139000
     22 H1          -1.8520    -2.5840    -0.0210 ha         1 LI6       0.152000
     23 O12          2.6460     1.5000     0.0120 o          1 LI6      -0.656500
@<TRIPOS>BOND
     1     1     2 ar  
     2     1    11 ar  
     3     1    14 1   
     4     2     3 ar  
     5     2     8 1   
     6     3     4 1   
     7     3    13 ar  
     8     4     5 2   
     9     4    10 1   
    10     5     6 1   
    11     5     7 1   
    12     6     8 1   
    13     6    23 2   
    14     7    15 1   
    15     8     9 1   
    16     9    16 1   
    17     9    17 1   
    18     9    18 1   
    19    10    19 1   
    20    11    12 ar  
    21    11    20 1   
    22    12    13 ar  
    23    12    21 1   
    24    13    22 1   
@<TRIPOS>SUBSTRUCTURE
     1 LI6         1 TEMP              0 ****  ****    0 ROOT
