@<TRIPOS>MOLECULE
LI8
   66    68     1     0     0
SMALL
No Charge or Current Charge


@<TRIPOS>ATOM
      1 C1           0.8470     3.0030    -1.8820 ca         1 LI8      -0.266900
      2 C2           1.0210     1.8850    -1.0550 ca         1 LI8       0.456900
      3 N3          -0.0190     1.2100    -0.5460 nb         1 LI8      -0.341000
      4 C4          -1.2360     1.6690    -0.8650 ca         1 LI8       0.439900
      5 N5          -1.5220     2.7180    -1.6560 nb         1 LI8      -0.268000
      6 C6          -0.4720     3.3900    -2.1630 ca         1 LI8       0.205900
      7 Br7          2.3270     3.9810    -2.6210 br         1 LI8      -0.089100
      8 N8          -2.2770     0.9210    -0.3430 nu         1 LI8      -0.923900
      9 C10         -3.6670     1.0560    -0.3100 ca         1 LI8       0.345000
     10 C11         -4.4450    -0.1060    -0.1860 ca         1 LI8      -0.199000
     11 C12         -5.8540    -0.0320    -0.1340 ca         1 LI8       0.029000
     12 C13         -6.4700     1.2290    -0.2040 ca         1 LI8      -0.205000
     13 C14         -5.7010     2.3980    -0.3110 ca         1 LI8      -0.057000
     14 C15         -4.3010     2.3100    -0.3590 ca         1 LI8      -0.165000
     15 N16         -6.7020    -1.1660    -0.0210 ns         1 LI8      -0.165000
     16 C18         -6.4430    -2.5210     0.1390 c          1 LI8       0.669100
     17 O19         -5.3200    -3.0010     0.2360 o          1 LI8      -0.630100
     18 N20         -7.5850    -3.3430     0.1930 n          1 LI8      -0.439800
     19 C21         -7.5020    -4.8060     0.3870 c5         1 LI8       0.109500
     20 C22         -8.9680    -5.1550     0.7520 c5         1 LI8      -0.094400
     21 C23         -9.7580    -4.1720    -0.1470 c5         1 LI8      -0.094400
     22 C24         -8.9760    -2.8500     0.0670 c5         1 LI8       0.109500
     23 N25          2.2930     1.4360    -0.7350 nu         1 LI8      -0.924100
     24 C27          2.6510     0.2840     0.1050 c3         1 LI8       0.234800
     25 C28          4.1820     0.1500     0.1960 c3         1 LI8      -0.120400
     26 N29          6.0760    -1.1490     1.1630 ns         1 LI8      -0.497900
     27 C31          6.8880    -1.7060     0.1970 c          1 LI8       0.622100
     28 O32          6.4130    -2.1750    -0.8280 o          1 LI8      -0.602100
     29 C33          4.6170    -1.0410     1.0730 c3         1 LI8       0.101000
     30 C34          8.4140    -1.6640     0.4490 c3         1 LI8      -0.210000
     31 C35          8.7970    -0.8330     1.7230 c3         1 LI8      -0.088600
     32 C36          9.1260    -1.0060    -0.7760 c3         1 LI8      -0.088600
     33 C37          8.8450    -3.1370     0.6250 c          1 LI8       0.623100
     34 O38          9.2020    -3.6160     1.6890 o          1 LI8      -0.606100
     35 N39          8.8530    -3.9160    -0.4780 nt         1 LI8      -0.595000
     36 H6          -0.6940     4.2450    -2.8010 h4         1 LI8       0.031100
     37 HN8         -1.9460     0.0380     0.0390 hn         1 LI8       0.514000
     38 H11         -3.9370    -1.0610    -0.1450 ha         1 LI8       0.146000
     39 H13         -7.5550     1.3080    -0.1670 ha         1 LI8       0.108000
     40 H14         -6.1880     3.3700    -0.3510 ha         1 LI8       0.111000
     41 H15         -3.7180     3.2220    -0.4160 ha         1 LI8       0.153000
     42 H16         -7.6850    -0.9410    -0.0670 hn         1 LI8       0.148000
     43 H211        -7.1880    -5.3010    -0.5410 h1         1 LI8       0.049700
     44 H212        -6.8040    -5.0850     1.1880 h1         1 LI8       0.049700
     45 H221        -9.2100    -6.2050     0.5530 hc         1 LI8       0.055700
     46 H222        -9.1660    -4.9670     1.8140 hc         1 LI8       0.055700
     47 H231        -9.7240    -4.4830    -1.1980 hc         1 LI8       0.055700
     48 H232       -10.8120    -4.0860     0.1380 hc         1 LI8       0.055700
     49 H241        -9.2910    -2.3410     0.9890 h1         1 LI8       0.049700
     50 H242        -9.1080    -2.1620    -0.7790 h1         1 LI8       0.049700
     51 H25          3.0520     1.9780    -1.1480 hn         1 LI8       0.509000
     52 H271         2.2300    -0.6390    -0.3200 h1         1 LI8       0.060200
     53 H272         2.2360     0.4100     1.1150 h1         1 LI8       0.060200
     54 H281         4.6030     1.0730     0.6120 hc         1 LI8       0.049700
     55 H282         4.5950     0.0270    -0.8120 hc         1 LI8       0.049700
     56 H29          6.5370    -0.7670     1.9800 hn         1 LI8       0.315500
     57 H331         4.2120    -1.9750     0.6600 h1         1 LI8       0.064700
     58 H332         4.2130    -0.9180     2.0870 h1         1 LI8       0.064700
     59 H351         8.4740     0.2110     1.6280 hc         1 LI8       0.047367
     60 H352         8.3470    -1.2510     2.6340 hc         1 LI8       0.047367
     61 H353         9.8840    -0.8300     1.8690 hc         1 LI8       0.047367
     62 H361        10.2160    -1.0320    -0.6530 hc         1 LI8       0.047367
     63 H362         8.8820    -1.5120    -1.7180 hc         1 LI8       0.047367
     64 H363         8.8240     0.0440    -0.8810 hc         1 LI8       0.047367
     65 H391         8.5330    -3.5420    -1.3590 hn         1 LI8       0.317000
     66 H392         9.1360    -4.8810    -0.4000 hn         1 LI8       0.317000
@<TRIPOS>BOND
     1     1     2 ar  
     2     1     6 ar  
     3     1     7 1   
     4     2     3 ar  
     5     2    23 1   
     6     3     4 ar  
     7     4     5 ar  
     8     4     8 1   
     9     5     6 ar  
    10     6    36 1   
    11     8     9 1   
    12     8    37 1   
    13     9    10 ar  
    14     9    14 ar  
    15    10    11 ar  
    16    10    38 1   
    17    11    12 ar  
    18    11    15 1   
    19    12    13 ar  
    20    12    39 1   
    21    13    14 ar  
    22    13    40 1   
    23    14    41 1   
    24    15    16 1   
    25    15    42 1   
    26    16    17 2   
    27    16    18 1   
    28    18    19 1   
    29    18    22 1   
    30    19    20 1   
    31    19    43 1   
    32    19    44 1   
    33    20    21 1   
    34    20    45 1   
    35    20    46 1   
    36    21    22 1   
    37    21    47 1   
    38    21    48 1   
    39    22    49 1   
    40    22    50 1   
    41    23    24 1   
    42    23    51 1   
    43    24    25 1   
    44    24    52 1   
    45    24    53 1   
    46    25    29 1   
    47    25    54 1   
    48    25    55 1   
    49    26    27 1   
    50    26    29 1   
    51    26    56 1   
    52    27    28 2   
    53    27    30 1   
    54    29    57 1   
    55    29    58 1   
    56    30    31 1   
    57    30    32 1   
    58    30    33 1   
    59    31    59 1   
    60    31    60 1   
    61    31    61 1   
    62    32    62 1   
    63    32    63 1   
    64    32    64 1   
    65    33    34 2   
    66    33    35 1   
    67    35    65 1   
    68    35    66 1   
@<TRIPOS>SUBSTRUCTURE
     1 LI8         1 TEMP              0 ****  ****    0 ROOT
