@<TRIPOS>MOLECULE
LI8
   66    68     1     0     0
SMALL
abcg2


@<TRIPOS>ATOM
      1 C1           0.6680     3.9780    -0.9310 ca         1 LI8      -0.266900
      2 C2           0.9250     2.6410    -0.5240 ca         1 LI8       0.456900
      3 N3          -0.0980     1.8140    -0.3500 nb         1 LI8      -0.341000
      4 C4          -1.3330     2.2650    -0.5700 ca         1 LI8       0.439900
      5 N5          -1.6610     3.4920    -0.9530 nb         1 LI8      -0.268000
      6 C6          -0.6420     4.3310    -1.1270 ca         1 LI8       0.205900
      7 BR7          2.0500     5.2230    -1.2010 br         1 LI8      -0.089100
      8 N8          -2.2990     1.3290    -0.3620 nu         1 LI8      -0.923900
      9 C10         -3.6800     1.3640    -0.5160 ca         1 LI8       0.345000
     10 C11         -4.3400     0.1600    -0.2370 ca         1 LI8      -0.199000
     11 C12         -5.7210     0.0600    -0.3600 ca         1 LI8       0.029000
     12 C13         -6.4520     1.1830    -0.7650 ca         1 LI8      -0.205000
     13 C14         -5.7900     2.3640    -1.0380 ca         1 LI8      -0.057000
     14 C15         -4.4110     2.4810    -0.9190 ca         1 LI8      -0.165000
     15 N16         -6.4400    -1.1150    -0.1470 ns         1 LI8      -0.165000
     16 C18         -6.0250    -2.2580     0.4960 c          1 LI8       0.669100
     17 O19         -4.9450    -2.3500     1.0690 o          1 LI8      -0.630100
     18 N20         -6.9050    -3.2800     0.4570 n          1 LI8      -0.439800
     19 C21         -6.6230    -4.5290     1.1530 c5         1 LI8       0.109500
     20 C22         -7.9240    -5.3090     1.0080 c5         1 LI8      -0.094400
     21 C23         -8.4730    -4.8260    -0.3300 c5         1 LI8      -0.094400
     22 C24         -8.1320    -3.3400    -0.3300 c5         1 LI8       0.109500
     23 N25          2.1540     2.1680    -0.3080 nu         1 LI8      -0.924100
     24 C27          2.4150     0.7970     0.0770 c3         1 LI8       0.234800
     25 C28          3.9120     0.5510     0.1530 c3         1 LI8      -0.120400
     26 N29          5.6180    -1.1470     0.6410 ns         1 LI8      -0.497900
     27 C31          6.2230    -2.1850     0.0510 c          1 LI8       0.622100
     28 O32          5.6310    -3.0190    -0.6210 o          1 LI8      -0.602100
     29 C33          4.1980    -0.8850     0.5680 c3         1 LI8       0.101000
     30 C34          7.7440    -2.2990     0.2090 c3         1 LI8      -0.210000
     31 C35          8.3770    -1.2960     1.1800 c3         1 LI8      -0.088600
     32 C36          8.3560    -2.1040    -1.1800 c3         1 LI8      -0.088600
     33 C37          7.9450    -3.6940     0.8130 c          1 LI8       0.623100
     34 O38          7.4000    -3.9730     1.8720 o          1 LI8      -0.606100
     35 N39          8.7450    -4.5430     0.1630 nt         1 LI8      -0.595000
     36 H6          -0.8970     5.3370    -1.4410 h4         1 LI8       0.031100
     37 HN8         -1.9210     0.4370    -0.0780 hn         1 LI8       0.514000
     38 H11         -3.7600    -0.6970     0.0700 ha         1 LI8       0.146000
     39 H13         -7.5290     1.1260    -0.8660 ha         1 LI8       0.108000
     40 H14         -6.3620     3.2280    -1.3520 ha         1 LI8       0.111000
     41 H15         -3.9210     3.4140    -1.1400 ha         1 LI8       0.153000
     42 H16         -7.4070    -1.0620    -0.4250 hn         1 LI8       0.148000
     43 H211        -5.7900    -5.0590     0.6810 h1         1 LI8       0.049700
     44 H212        -6.3550    -4.3530     2.1950 h1         1 LI8       0.049700
     45 H221        -7.7620    -6.3860     1.0400 hc         1 LI8       0.055700
     46 H222        -8.6140    -5.0530     1.8150 hc         1 LI8       0.055700
     47 H231        -7.9570    -5.3240    -1.1530 hc         1 LI8       0.055700
     48 H232        -9.5420    -5.0000    -0.4500 hc         1 LI8       0.055700
     49 H241        -8.9320    -2.7530     0.1350 h1         1 LI8       0.049700
     50 H242        -7.9780    -2.9590    -1.3410 h1         1 LI8       0.049700
     51 H25          2.9460     2.7760    -0.4410 hn         1 LI8       0.509000
     52 H271         1.9620     0.1160    -0.6490 h1         1 LI8       0.060200
     53 H272         1.9500     0.5830     1.0430 h1         1 LI8       0.060200
     54 H281         4.3620     1.2390     0.8750 hc         1 LI8       0.049700
     55 H282         4.3710     0.7510    -0.8190 hc         1 LI8       0.049700
     56 H29          6.1640    -0.5300     1.2190 hn         1 LI8       0.315500
     57 H331         3.7620    -1.5780    -0.1500 h1         1 LI8       0.064700
     58 H332         3.7350    -1.0920     1.5370 h1         1 LI8       0.064700
     59 H351         8.2780    -0.2740     0.8110 hc         1 LI8       0.047367
     60 H352         7.9460    -1.3520     2.1790 hc         1 LI8       0.047367
     61 H353         9.4450    -1.4960     1.2720 hc         1 LI8       0.047367
     62 H361         9.4450    -2.1730    -1.1450 hc         1 LI8       0.047367
     63 H362         7.9810    -2.8250    -1.9070 hc         1 LI8       0.047367
     64 H363         8.1160    -1.1070    -1.5540 hc         1 LI8       0.047367
     65 H391         9.1750    -4.3270    -0.7190 hn         1 LI8       0.317000
     66 H392         8.9100    -5.4630     0.5390 hn         1 LI8       0.317000
@<TRIPOS>BOND
     1     1     2 ar  
     2     1     6 ar  
     3     1     7 1   
     4     2     3 ar  
     5     2    23 1   
     6     3     4 ar  
     7     4     5 ar  
     8     4     8 1   
     9     5     6 ar  
    10     6    36 1   
    11     8     9 1   
    12     8    37 1   
    13     9    10 ar  
    14     9    14 ar  
    15    10    11 ar  
    16    10    38 1   
    17    11    12 ar  
    18    11    15 1   
    19    12    13 ar  
    20    12    39 1   
    21    13    14 ar  
    22    13    40 1   
    23    14    41 1   
    24    15    16 1   
    25    15    42 1   
    26    16    17 2   
    27    16    18 1   
    28    18    19 1   
    29    18    22 1   
    30    19    20 1   
    31    19    43 1   
    32    19    44 1   
    33    20    21 1   
    34    20    45 1   
    35    20    46 1   
    36    21    22 1   
    37    21    47 1   
    38    21    48 1   
    39    22    49 1   
    40    22    50 1   
    41    23    24 1   
    42    23    51 1   
    43    24    25 1   
    44    24    52 1   
    45    24    53 1   
    46    25    29 1   
    47    25    54 1   
    48    25    55 1   
    49    26    27 1   
    50    26    29 1   
    51    26    56 1   
    52    27    28 2   
    53    27    30 1   
    54    29    57 1   
    55    29    58 1   
    56    30    31 1   
    57    30    32 1   
    58    30    33 1   
    59    31    59 1   
    60    31    60 1   
    61    31    61 1   
    62    32    62 1   
    63    32    63 1   
    64    32    64 1   
    65    33    34 2   
    66    33    35 1   
    67    35    65 1   
    68    35    66 1   
@<TRIPOS>SUBSTRUCTURE
     1 LI8         1 TEMP              0 ****  ****    0 ROOT
