@<TRIPOS>MOLECULE
LIA
   51    53     1     0     0
SMALL
bcc


@<TRIPOS>ATOM
      1 N1          -5.7280     0.5830     0.5820 n3         1 LIA      -0.752500
      2 C2          -5.1890     1.8620     0.1260 c6         1 LIA       0.207300
      3 C3          -3.9080     1.7020    -0.6840 c6         1 LIA      -0.125400
      4 C4          -2.8780     0.8840     0.0880 c6         1 LIA       0.253500
      5 C5          -3.4740    -0.4550     0.5200 c6         1 LIA      -0.125400
      6 C6          -4.7640    -0.2450     1.3040 c6         1 LIA       0.207300
      7 N7          -1.6900     0.7220    -0.7200 nu         1 LIA      -0.862900
      8 C8          -0.4540     0.5270    -0.2490 ca         1 LIA       0.972900
      9 N9          -0.2910     0.5120     1.0890 nb         1 LIA      -0.812000
     10 C10          0.9370     0.3020     1.4970 ca         1 LIA       0.556200
     11 C11          2.0440     0.1000     0.6660 ca         1 LIA      -0.542200
     12 C12          1.7570     0.1850    -0.7320 ca         1 LIA       0.804200
     13 N13          0.5110     0.3820    -1.1520 nb         1 LIA      -0.890000
     14 C14          3.3200    -0.1830     1.3030 c          1 LIA       0.643300
     15 O15          3.5000    -0.0430     2.4990 o          1 LIA      -0.520100
     16 C16          4.4660    -0.7140     0.4880 ca         1 LIA      -0.237600
     17 C17          4.4210    -1.9980    -0.0150 ca         1 LIA       0.166900
     18 C18          5.4970    -2.5460    -0.6890 ca         1 LIA       0.051900
     19 C19          6.6380    -1.7980    -0.8680 ca         1 LIA      -0.096000
     20 C20          6.7120    -0.5030    -0.3730 ca         1 LIA      -0.221000
     21 C21          5.6330     0.0440     0.3160 ca         1 LIA       0.180100
     22 O22          5.6000     1.2850     0.8180 os         1 LIA      -0.299900
     23 C23          6.7340     2.1170     0.6470 c3         1 LIA       0.122700
     24 F24          3.3130    -2.7240     0.1500 f          1 LIA      -0.110900
     25 F25          5.4120    -3.7970    -1.1550 f          1 LIA      -0.121900
     26 N26          2.6750     0.0880    -1.7000 nv         1 LIA      -0.955500
     27 S27         -6.9780    -0.1120    -0.2260 s6         1 LIA       1.243900
     28 C28         -6.3550    -0.7760    -1.7560 c3         1 LIA      -0.269300
     29 O29         -7.4450    -1.2290     0.5830 o          1 LIA      -0.603800
     30 O30         -7.9150     0.9490    -0.5680 o          1 LIA      -0.603800
     31 H21         -4.9890     2.4620     1.0170 h1         1 LIA       0.075950
     32 H22         -5.9400     2.4010    -0.4470 h1         1 LIA       0.075950
     33 H31         -3.5080     2.6920    -0.9110 hc         1 LIA       0.057700
     34 H32         -4.1280     1.2190    -1.6420 hc         1 LIA       0.057700
     35 H4          -2.5990     1.4410     0.9860 h1         1 LIA       0.088700
     36 H51         -3.6570    -1.0820    -0.3570 hc         1 LIA       0.057700
     37 H52         -2.7630    -0.9920     1.1510 hc         1 LIA       0.057700
     38 H61         -4.5450     0.2680     2.2440 h1         1 LIA       0.075950
     39 H62         -5.2180    -1.1970     1.5680 h1         1 LIA       0.075950
     40 HN7         -1.7960     0.6820    -1.7230 hn         1 LIA       0.447800
     41 H10          1.0810     0.2690     2.5710 h4         1 LIA       0.039100
     42 H19          7.4800    -2.2240    -1.3990 ha         1 LIA       0.155000
     43 H20          7.6200     0.0610    -0.5330 ha         1 LIA       0.148000
     44 H231         7.6170     1.7030     1.1400 h1         1 LIA       0.047367
     45 H232         6.9580     2.2840    -0.4090 h1         1 LIA       0.047367
     46 H233         6.4860     3.0680     1.1100 h1         1 LIA       0.047367
     47 H261         2.3770     0.2550    -2.6470 hn         1 LIA       0.444800
     48 H262         3.6610     0.1220    -1.5200 hn         1 LIA       0.444800
     49 H281        -5.6040    -1.5360    -1.5510 h1         1 LIA       0.099033
     50 H282        -7.1910    -1.2220    -2.2930 h1         1 LIA       0.099033
     51 H283        -5.9250     0.0250    -2.3530 h1         1 LIA       0.099033
@<TRIPOS>BOND
     1     1     2 1   
     2     1     6 1   
     3     1    27 1   
     4     2     3 1   
     5     2    31 1   
     6     2    32 1   
     7     3     4 1   
     8     3    33 1   
     9     3    34 1   
    10     4     5 1   
    11     4     7 1   
    12     4    35 1   
    13     5     6 1   
    14     5    36 1   
    15     5    37 1   
    16     6    38 1   
    17     6    39 1   
    18     7     8 1   
    19     7    40 1   
    20     8     9 ar  
    21     8    13 ar  
    22     9    10 ar  
    23    10    11 ar  
    24    10    41 1   
    25    11    12 ar  
    26    11    14 1   
    27    12    13 ar  
    28    12    26 1   
    29    14    15 2   
    30    14    16 1   
    31    16    17 ar  
    32    16    21 ar  
    33    17    18 ar  
    34    17    24 1   
    35    18    19 ar  
    36    18    25 1   
    37    19    20 ar  
    38    19    42 1   
    39    20    21 ar  
    40    20    43 1   
    41    21    22 1   
    42    22    23 1   
    43    23    44 1   
    44    23    45 1   
    45    23    46 1   
    46    26    47 1   
    47    26    48 1   
    48    27    28 1   
    49    27    29 2   
    50    27    30 2   
    51    28    49 1   
    52    28    50 1   
    53    28    51 1   
@<TRIPOS>SUBSTRUCTURE
     1 LIA         1 TEMP              0 ****  ****    0 ROOT
