@<TRIPOS>MOLECULE
LIA
   51    53     1     0     0
SMALL
No Charge or Current Charge


@<TRIPOS>ATOM
      1 N1          -5.7940     0.1890     0.5420 n3         1 LIA      -0.752500
      2 C2          -5.4680     1.5920     0.1750 c6         1 LIA       0.207300
      3 C3          -4.0990     1.7130    -0.5460 c6         1 LIA      -0.125400
      4 C4          -2.9820     1.0120     0.2580 c6         1 LIA       0.253500
      5 C5          -3.3790    -0.4490     0.5680 c6         1 LIA      -0.125400
      6 C6          -4.7230    -0.4780     1.3250 c6         1 LIA       0.207300
      7 N7          -1.7330     1.0440    -0.5210 nu         1 LIA      -0.918100
      8 C8          -0.4550     0.8610    -0.0270 ca         1 LIA       0.446900
      9 N9          -0.2860     0.7860     1.3030 nb         1 LIA      -0.286000
     10 C10          0.9750     0.6060     1.7320 ca         1 LIA       0.227900
     11 C11          2.0490     0.4930     0.8360 ca         1 LIA      -0.411600
     12 C12          1.7440     0.6030    -0.5260 ca         1 LIA       0.475900
     13 N13          0.4950     0.7860    -0.9630 nb         1 LIA      -0.364000
     14 C14          3.4260     0.2820     1.3720 c          1 LIA       0.643300
     15 O15          3.7400     0.7620     2.4530 o          1 LIA      -0.520100
     16 C16          4.3900    -0.5670     0.6050 ca         1 LIA      -0.237600
     17 C17          4.0300    -1.8820     0.2510 ca         1 LIA       0.202000
     18 C18          4.9250    -2.6980    -0.4650 ca         1 LIA       0.087000
     19 C19          6.1860    -2.2040    -0.8300 ca         1 LIA      -0.078000
     20 C20          6.5520    -0.8930    -0.4790 ca         1 LIA      -0.203000
     21 C21          5.6570    -0.0690     0.2420 ca         1 LIA       0.180100
     22 O22          5.9710     1.2330     0.5720 os         1 LIA      -0.323100
     23 C23          7.2370     1.8320     0.2430 c3         1 LIA       0.145900
     24 F24          2.8250    -2.3790     0.6170 f          1 LIA      -0.146000
     25 F25          4.5800    -3.9620    -0.8010 f          1 LIA      -0.157000
     26 N26          2.6760     0.5880    -1.5120 nv         1 LIA      -0.745900
     27 S27         -6.7600    -0.7560    -0.5390 s6         1 LIA       1.213100
     28 C28         -6.0740    -0.5110    -2.1690 c3         1 LIA      -0.380100
     29 O29         -6.5420    -2.1610    -0.1830 o          1 LIA      -0.533000
     30 O30         -8.1170    -0.2040    -0.4760 o          1 LIA      -0.533000
     31 H21         -5.4200     2.2010     1.0910 h1         1 LIA       0.075950
     32 H22         -6.2590     2.0390    -0.4460 h1         1 LIA       0.075950
     33 H31         -3.8520     2.7750    -0.6740 hc         1 LIA       0.057700
     34 H32         -4.1590     1.2920    -1.5560 hc         1 LIA       0.057700
     35 H4          -2.8580     1.5590     1.2070 h1         1 LIA       0.088700
     36 H51         -3.4540    -1.0340    -0.3580 hc         1 LIA       0.057700
     37 H52         -2.6060    -0.9290     1.1820 hc         1 LIA       0.057700
     38 H61         -4.5880     0.0490     2.2820 h1         1 LIA       0.075950
     39 H62         -4.9840    -1.5140     1.5900 h1         1 LIA       0.075950
     40 HN7         -1.7920     1.0820    -1.5370 hn         1 LIA       0.503000
     41 H10          1.1150     0.5380     2.8110 h4         1 LIA       0.039100
     42 H19          6.8760    -2.8370    -1.3840 ha         1 LIA       0.137000
     43 H20          7.5330    -0.5340    -0.7790 ha         1 LIA       0.130000
     44 H231         8.0630     1.2800     0.7110 h1         1 LIA       0.047367
     45 H232         7.3930     1.8470    -0.8430 h1         1 LIA       0.047367
     46 H233         7.2730     2.8670     0.6050 h1         1 LIA       0.047367
     47 H261         2.3870     0.7830    -2.4630 hn         1 LIA       0.340000
     48 H262         3.6610     0.6010    -1.2840 hn         1 LIA       0.340000
     49 H281        -5.0240    -0.8150    -2.1390 h1         1 LIA       0.099033
     50 H282        -6.6440    -1.1430    -2.8560 h1         1 LIA       0.099033
     51 H283        -6.1870     0.5460    -2.4280 h1         1 LIA       0.099033
@<TRIPOS>BOND
     1     1     2 1   
     2     1     6 1   
     3     1    27 1   
     4     2     3 1   
     5     2    31 1   
     6     2    32 1   
     7     3     4 1   
     8     3    33 1   
     9     3    34 1   
    10     4     5 1   
    11     4     7 1   
    12     4    35 1   
    13     5     6 1   
    14     5    36 1   
    15     5    37 1   
    16     6    38 1   
    17     6    39 1   
    18     7     8 1   
    19     7    40 1   
    20     8     9 ar  
    21     8    13 ar  
    22     9    10 ar  
    23    10    11 ar  
    24    10    41 1   
    25    11    12 ar  
    26    11    14 1   
    27    12    13 ar  
    28    12    26 1   
    29    14    15 2   
    30    14    16 1   
    31    16    17 ar  
    32    16    21 ar  
    33    17    18 ar  
    34    17    24 1   
    35    18    19 ar  
    36    18    25 1   
    37    19    20 ar  
    38    19    42 1   
    39    20    21 ar  
    40    20    43 1   
    41    21    22 1   
    42    22    23 1   
    43    23    44 1   
    44    23    45 1   
    45    23    46 1   
    46    26    47 1   
    47    26    48 1   
    48    27    28 1   
    49    27    29 2   
    50    27    30 2   
    51    28    49 1   
    52    28    50 1   
    53    28    51 1   
@<TRIPOS>SUBSTRUCTURE
     1 LIA         1 TEMP              0 ****  ****    0 ROOT
