@<TRIPOS>MOLECULE
LIB
   58    60     1     0     0
SMALL
No Charge or Current Charge


@<TRIPOS>ATOM
      1 N1           0.5220     0.4350    -0.9100 n          1 LIB      -0.255900
      2 C4           3.7540     2.7450     0.7250 ca         1 LIB       0.150100
      3 C5           2.9310     1.1070    -0.8830 ca         1 LIB      -0.069500
      4 C6           1.3960     2.1150     0.7080 ca         1 LIB      -0.069500
      5 C7           2.4510     2.8720     1.2480 ca         1 LIB      -0.169500
      6 C8           3.9830     1.8640    -0.3410 ca         1 LIB      -0.169500
      7 C20          2.2760    -2.8960    -1.0340 ca         1 LIB      -0.004000
      8 C22          3.3800    -5.4890    -1.3010 ca         1 LIB      -0.121000
      9 C24          3.5050    -3.2240    -0.4190 ca         1 LIB       0.077000
     10 C26          2.1580    -5.1760    -1.9180 ca         1 LIB      -0.088000
     11 Cl28         4.3830    -2.0230     0.5310 cl         1 LIB      -0.209000
     12 C25          4.0520    -4.5120    -0.5510 ca         1 LIB      -0.084000
     13 C23          1.6070    -3.8890    -1.7880 ca         1 LIB      -0.108000
     14 C1           0.6390    -0.9220    -1.3150 c          1 LIB       0.683100
     15 O18         -0.2200    -1.4710    -1.9960 o          1 LIB      -0.564100
     16 C2           1.6230     1.2120    -0.3560 ca         1 LIB      -0.106000
     17 C14          4.6970     4.3910     2.3040 c3         1 LIB       0.146900
     18 C3          -0.7600     1.0880    -0.9500 ca         1 LIB       0.310900
     19 C32         -0.8810     2.4290    -1.3630 ca         1 LIB      -0.314000
     20 C37         -2.1470     3.0270    -1.2880 ca         1 LIB       0.159900
     21 N38         -3.2100     2.3540    -0.8150 nb         1 LIB      -0.267000
     22 C34         -2.9890     1.0860    -0.4210 ca         1 LIB       0.412900
     23 N33         -1.8220     0.4250    -0.4480 nb         1 LIB      -0.270000
     24 N35         -4.0560     0.3690     0.0920 nu         1 LIB      -0.915100
     25 C40         -5.4770     0.7630     0.1810 c3         1 LIB       0.264500
     26 C43         -6.1180     0.5420    -1.2120 c3         1 LIB      -0.109100
     27 C42         -6.1890    -0.0230     1.3620 c3         1 LIB       0.172000
     28 C47         -5.5920     0.3940     2.7310 c3         1 LIB      -0.120600
     29 C46         -7.7210     0.2100     1.3880 c3         1 LIB      -0.120600
     30 O45         -5.9680    -1.4380     1.2190 oh         1 LIB      -0.665000
     31 H5           3.1390     0.4630    -1.7350 ha         1 LIB       0.130000
     32 H6           0.4040     2.2210     1.1410 ha         1 LIB       0.130000
     33 H7           2.2370     3.5460     2.0720 ha         1 LIB       0.128500
     34 H8           4.9830     1.7740    -0.7570 ha         1 LIB       0.128500
     35 H22          3.8030    -6.4860    -1.4030 ha         1 LIB       0.119000
     36 H26          1.6360    -5.9330    -2.5000 ha         1 LIB       0.119000
     37 H25          4.9990    -4.7500    -0.0720 ha         1 LIB       0.128000
     38 H23          0.6620    -3.6890    -2.2810 ha         1 LIB       0.136000
     39 HN19         2.3720    -0.9900    -0.2890 hn         1 LIB       0.171000
     40 H141         5.6680     4.8480     2.5320 h1         1 LIB       0.043700
     41 H142         3.9950     5.1950     2.0490 h1         1 LIB       0.043700
     42 H143         4.3400     3.8830     3.2090 h1         1 LIB       0.043700
     43 H32         -0.0250     2.9840    -1.7360 ha         1 LIB       0.140000
     44 H37         -2.3100     4.0570    -1.6010 h4         1 LIB       0.017100
     45 HN35        -3.8500    -0.5870     0.3810 hn         1 LIB       0.520000
     46 H40         -5.5490     1.8340     0.4190 h1         1 LIB       0.078700
     47 H431        -6.1470    -0.5240    -1.4680 hc         1 LIB       0.045700
     48 H432        -7.1410     0.9350    -1.2420 hc         1 LIB       0.045700
     49 H433        -5.5490     1.0640    -1.9900 hc         1 LIB       0.045700
     50 H471        -5.7220     1.4700     2.8970 hc         1 LIB       0.044033
     51 H472        -6.0850    -0.1350     3.5560 hc         1 LIB       0.044033
     52 H473        -4.5200     0.1710     2.7860 hc         1 LIB       0.044033
     53 H461        -8.2080    -0.2190     0.5040 hc         1 LIB       0.044033
     54 H462        -8.1760    -0.2550     2.2710 hc         1 LIB       0.044033
     55 H463        -7.9490     1.2830     1.4180 hc         1 LIB       0.044033
     56 HO45        -6.4480    -1.8770     1.9530 ho         1 LIB       0.444000
     57 O13          4.8280     3.4610     1.2130 os         1 LIB      -0.337100
     58 N19          1.7770    -1.5740    -0.8620 ns         1 LIB      -0.166000
@<TRIPOS>BOND
     1     1    14 1   
     2     1    16 1   
     3     1    18 1   
     4     2     5 ar  
     5     2     6 ar  
     6     2    57 1   
     7     3     6 ar  
     8     3    16 ar  
     9     3    31 1   
    10     4     5 ar  
    11     4    16 ar  
    12     4    32 1   
    13     5    33 1   
    14     6    34 1   
    15     7     9 ar  
    16     7    13 ar  
    17     7    58 1   
    18     8    10 ar  
    19     8    12 ar  
    20     8    35 1   
    21     9    11 1   
    22     9    12 ar  
    23    10    13 ar  
    24    10    36 1   
    25    12    37 1   
    26    13    38 1   
    27    14    15 2   
    28    14    58 1   
    29    17    40 1   
    30    17    41 1   
    31    17    42 1   
    32    17    57 1   
    33    18    19 ar  
    34    18    23 ar  
    35    19    20 ar  
    36    19    43 1   
    37    20    21 ar  
    38    20    44 1   
    39    21    22 ar  
    40    22    23 ar  
    41    22    24 1   
    42    24    25 1   
    43    24    45 1   
    44    25    26 1   
    45    25    27 1   
    46    25    46 1   
    47    26    47 1   
    48    26    48 1   
    49    26    49 1   
    50    27    28 1   
    51    27    29 1   
    52    27    30 1   
    53    28    50 1   
    54    28    51 1   
    55    28    52 1   
    56    29    53 1   
    57    29    54 1   
    58    29    55 1   
    59    30    56 1   
    60    39    58 1   
@<TRIPOS>SUBSTRUCTURE
     1 LIB         1 TEMP              0 ****  ****    0 ROOT
