@<TRIPOS>MOLECULE
LIB
   58    60     1     0     0
SMALL
abcg2


@<TRIPOS>ATOM
      1 N1           0.4760     0.4770    -0.6620 n          1 LIB      -0.255900
      2 C4           3.7620     2.9120     0.3510 ca         1 LIB       0.150100
      3 C5           2.5510     1.6190    -1.2830 ca         1 LIB      -0.069500
      4 C6           1.7240     1.7890     0.9640 ca         1 LIB      -0.069500
      5 C7           2.7980     2.5980     1.3080 ca         1 LIB      -0.169500
      6 C8           3.6280     2.4130    -0.9480 ca         1 LIB      -0.169500
      7 C20          2.2290    -2.7060    -0.7160 ca         1 LIB      -0.004000
      8 C22          3.1460    -5.3240    -1.0960 ca         1 LIB      -0.121000
      9 C24          2.7790    -3.4410     0.3370 ca         1 LIB       0.077000
     10 C26          2.6030    -4.6090    -2.1550 ca         1 LIB      -0.088000
     11 CL28         2.8900    -2.7220     1.9110 cl         1 LIB      -0.209000
     12 C25          3.2420    -4.7340     0.1540 ca         1 LIB      -0.084000
     13 C23          2.1590    -3.3100    -1.9700 ca         1 LIB      -0.108000
     14 C1           0.6410    -0.8720    -0.9700 c          1 LIB       0.683100
     15 O18         -0.1660    -1.5090    -1.6090 o          1 LIB      -0.564100
     16 C2           1.5910     1.2970    -0.3250 ca         1 LIB      -0.106000
     17 C14          5.0240     4.2130     1.8800 c3         1 LIB       0.146900
     18 C3          -0.7910     1.0710    -0.7020 ca         1 LIB       0.310900
     19 C32         -0.9270     2.3990    -1.1160 ca         1 LIB      -0.314000
     20 C37         -2.2150     2.8930    -1.0990 ca         1 LIB       0.159900
     21 N38         -3.2720     2.1870    -0.7240 nb         1 LIB      -0.267000
     22 C34         -3.0250     0.9320    -0.3330 ca         1 LIB       0.412900
     23 N33         -1.8170     0.3530    -0.3020 nb         1 LIB      -0.270000
     24 N35         -4.0490     0.1750     0.0930 nu         1 LIB      -0.915100
     25 C40         -5.4450     0.5560     0.0510 c3         1 LIB       0.264500
     26 C43         -6.0540     0.2040    -1.3040 c3         1 LIB      -0.109100
     27 C42         -6.1720    -0.0730     1.2550 c3         1 LIB       0.172000
     28 C47         -5.5660     0.4360     2.5620 c3         1 LIB      -0.120600
     29 C46         -7.6600     0.2700     1.2270 c3         1 LIB      -0.120600
     30 O45         -5.9840    -1.4770     1.1360 oh         1 LIB      -0.665000
     31 H5           2.4520     1.2480    -2.2950 ha         1 LIB       0.130000
     32 H6           0.9840     1.5430     1.7150 ha         1 LIB       0.130000
     33 H7           2.8670     2.9630     2.3230 ha         1 LIB       0.128500
     34 H8           4.3740     2.6600    -1.6940 ha         1 LIB       0.128500
     35 H22          3.5010    -6.3350    -1.2420 ha         1 LIB       0.119000
     36 H26          2.5380    -5.0560    -3.1370 ha         1 LIB       0.119000
     37 H25          3.6680    -5.2760     0.9870 ha         1 LIB       0.128000
     38 H23          1.7660    -2.7550    -2.8100 ha         1 LIB       0.136000
     39 HN19         2.3360    -0.8570     0.1780 hn         1 LIB       0.171000
     40 H141         5.9420     4.7940     1.8450 h1         1 LIB       0.043700
     41 H142         4.2020     4.8720     2.1700 h1         1 LIB       0.043700
     42 H143         5.1340     3.4290     2.6340 h1         1 LIB       0.043700
     43 H32         -0.0930     3.0010    -1.4430 ha         1 LIB       0.140000
     44 H37         -2.4080     3.9110    -1.4180 h4         1 LIB       0.017100
     45 HN35        -3.8350    -0.7890     0.2950 hn         1 LIB       0.520000
     46 H40         -5.4950     1.6380     0.1820 h1         1 LIB       0.078700
     47 H431        -6.0660    -0.8730    -1.4710 hc         1 LIB       0.045700
     48 H432        -7.0740     0.5750    -1.4020 hc         1 LIB       0.045700
     49 H433        -5.4660     0.6630    -2.0990 hc         1 LIB       0.045700
     50 H471        -5.6930     1.5150     2.6560 hc         1 LIB       0.044033
     51 H472        -6.0650    -0.0260     3.4170 hc         1 LIB       0.044033
     52 H473        -4.5010     0.2150     2.6320 hc         1 LIB       0.044033
     53 H461        -8.1650    -0.1740     0.3700 hc         1 LIB       0.044033
     54 H462        -8.1490    -0.1010     2.1310 hc         1 LIB       0.044033
     55 H463        -7.8150     1.3490     1.1900 hc         1 LIB       0.044033
     56 HO45        -6.3210    -1.9000     1.9320 ho         1 LIB       0.444000
     57 O13          4.8400     3.6760     0.5840 os         1 LIB      -0.337100
     58 N19          1.8150    -1.3910    -0.5010 ns         1 LIB      -0.166000
@<TRIPOS>BOND
     1     1    14 1   
     2     1    16 1   
     3     1    18 1   
     4     2     5 ar  
     5     2     6 ar  
     6     2    57 1   
     7     3     6 ar  
     8     3    16 ar  
     9     3    31 1   
    10     4     5 ar  
    11     4    16 ar  
    12     4    32 1   
    13     5    33 1   
    14     6    34 1   
    15     7     9 ar  
    16     7    13 ar  
    17     7    58 1   
    18     8    10 ar  
    19     8    12 ar  
    20     8    35 1   
    21     9    11 1   
    22     9    12 ar  
    23    10    13 ar  
    24    10    36 1   
    25    12    37 1   
    26    13    38 1   
    27    14    15 2   
    28    14    58 1   
    29    17    40 1   
    30    17    41 1   
    31    17    42 1   
    32    17    57 1   
    33    18    19 ar  
    34    18    23 ar  
    35    19    20 ar  
    36    19    43 1   
    37    20    21 ar  
    38    20    44 1   
    39    21    22 ar  
    40    22    23 ar  
    41    22    24 1   
    42    24    25 1   
    43    24    45 1   
    44    25    26 1   
    45    25    27 1   
    46    25    46 1   
    47    26    47 1   
    48    26    48 1   
    49    26    49 1   
    50    27    28 1   
    51    27    29 1   
    52    27    30 1   
    53    28    50 1   
    54    28    51 1   
    55    28    52 1   
    56    29    53 1   
    57    29    54 1   
    58    29    55 1   
    59    30    56 1   
    60    39    58 1   
@<TRIPOS>SUBSTRUCTURE
     1 LIB         1 TEMP              0 ****  ****    0 ROOT
