@<TRIPOS>MOLECULE
LIC
   61    63     1     0     0
SMALL
bcc


@<TRIPOS>ATOM
      1 N1          -0.0470     0.3470     0.0920 n          1 LIC      -0.416500
      2 C7          -2.0550    -2.6210    -0.7280 c3         1 LIC       0.161300
      3 C13         -4.4480    -2.7450    -1.4770 ca         1 LIC      -0.112000
      4 C15         -5.4010    -2.0850     1.0360 ca         1 LIC      -0.125000
      5 C21         -3.0090     3.2670    -0.5920 ca         1 LIC       0.144100
      6 C22         -2.1160     1.4740     0.7480 ca         1 LIC      -0.091000
      7 C24         -1.9450     3.1250    -1.4810 ca         1 LIC      -0.187000
      8 C12         -4.0400    -2.1960     0.8020 ca         1 LIC       0.042400
      9 C11         -6.2910    -2.3080    -0.0050 ca         1 LIC      -0.113000
     10 C14         -5.8150    -2.6410    -1.2640 ca         1 LIC      -0.129000
     11 C9          -3.5320    -2.5260    -0.4520 ca         1 LIC      -0.108300
     12 C1          -0.3680    -1.0230     0.0780 c          1 LIC       0.817100
     13 O4           0.2530    -1.8420     0.7240 o          1 LIC      -0.577100
     14 C2          -1.0550     1.3250    -0.1420 ca         1 LIC      -0.007400
     15 C25         -3.0890     2.4260     0.5230 ca         1 LIC      -0.187000
     16 C31         -3.9460     5.0700    -1.8160 c3         1 LIC       0.124700
     17 C23         -0.9820     2.1500    -1.2540 ca         1 LIC      -0.091000
     18 C3           1.2420     0.7810     0.3930 ca         1 LIC       0.645200
     19 C35          1.4430     2.0320     0.9900 ca         1 LIC      -0.469600
     20 C37          2.7590     2.3740     1.2180 ca         1 LIC       0.487200
     21 N39          3.7910     1.5980     0.9160 nb         1 LIC      -0.797000
     22 C41          3.4850     0.4260     0.3500 ca         1 LIC       0.938900
     23 N42          2.2480    -0.0020     0.0650 nb         1 LIC      -0.801000
     24 N36          4.4880    -0.4000     0.0040 nu         1 LIC      -0.861900
     25 C43          5.8840    -0.1790     0.3190 c3         1 LIC       0.265500
     26 C45          6.1930    -0.6000     1.7550 c3         1 LIC      -0.109100
     27 C47          6.7520    -0.8810    -0.7430 c3         1 LIC       0.148800
     28 C53          6.4680    -0.3000    -2.1270 c3         1 LIC      -0.120600
     29 O52          6.3880    -2.2550    -0.7010 oh         1 LIC      -0.602800
     30 C51          8.2350    -0.7130    -0.4190 c3         1 LIC      -0.120600
     31 H71         -1.9060    -3.0800    -1.7080 h1         1 LIC       0.069700
     32 H72         -1.5580    -3.2610    -0.0000 h1         1 LIC       0.069700
     33 H15         -5.7640    -1.8290     2.0220 ha         1 LIC       0.148000
     34 H22         -2.1820     0.8350     1.6190 ha         1 LIC       0.149500
     35 H24         -1.8500     3.7560    -2.3530 ha         1 LIC       0.145000
     36 H11         -7.3540    -2.2220     0.1760 ha         1 LIC       0.137000
     37 H14         -6.5040    -2.8180    -2.0790 ha         1 LIC       0.137000
     38 H25         -3.9140     2.5340     1.2150 ha         1 LIC       0.145000
     39 H311        -3.9910     4.5480    -2.7750 h1         1 LIC       0.043033
     40 H312        -4.8180     5.7120    -1.7250 h1         1 LIC       0.043033
     41 H313        -3.0460     5.6900    -1.7940 h1         1 LIC       0.043033
     42 H23         -0.1640     2.0410    -1.9540 ha         1 LIC       0.149500
     43 H35          0.6350     2.6900     1.2680 ha         1 LIC       0.157000
     44 H37          2.9950     3.3260     1.6810 h4         1 LIC       0.015100
     45 HN36         4.2200    -1.3140    -0.3250 hn         1 LIC       0.463800
     46 H43          6.0770     0.8920     0.2260 h1         1 LIC       0.075700
     47 H451         6.1060    -1.6790     1.8830 hc         1 LIC       0.046033
     48 H452         7.1960    -0.2990     2.0550 hc         1 LIC       0.046033
     49 H453         5.4930    -0.1180     2.4380 hc         1 LIC       0.046033
     50 H531         6.7140     0.7620    -2.1650 hc         1 LIC       0.043867
     51 H532         7.0750    -0.8020    -2.8840 hc         1 LIC       0.043867
     52 H533         5.4210    -0.4130    -2.4090 hc         1 LIC       0.043867
     53 HO52         6.8220    -2.7080    -1.4300 ho         1 LIC       0.404000
     54 H511         8.5110    -1.2280     0.5010 hc         1 LIC       0.043867
     55 H512         8.8480    -1.1230    -1.2250 hc         1 LIC       0.043867
     56 H513         8.4990     0.3400    -0.3110 hc         1 LIC       0.043867
     57 O30         -3.9920     4.1720    -0.7230 os         1 LIC      -0.314900
     58 N5          -1.4320    -1.3190    -0.6960 ns         1 LIC      -0.583900
     59 H13         -4.0760    -3.0050    -2.4610 ha         1 LIC       0.134000
     60 CL16        -2.9540    -1.9350     2.1310 cl         1 LIC      -0.100400
     61 HN5         -1.8470    -0.6030    -1.2700 hn         1 LIC       0.322500
@<TRIPOS>BOND
     1     1    12 1   
     2     1    14 1   
     3     1    18 1   
     4     2    11 1   
     5     2    31 1   
     6     2    32 1   
     7     2    58 1   
     8     3    10 ar  
     9     3    11 ar  
    10     3    59 1   
    11     4     8 ar  
    12     4     9 ar  
    13     4    33 1   
    14     5     7 ar  
    15     5    15 ar  
    16     5    57 1   
    17     6    14 ar  
    18     6    15 ar  
    19     6    34 1   
    20     7    17 ar  
    21     7    35 1   
    22     8    11 ar  
    23     8    60 1   
    24     9    10 ar  
    25     9    36 1   
    26    10    37 1   
    27    12    13 2   
    28    12    58 1   
    29    14    17 ar  
    30    15    38 1   
    31    16    39 1   
    32    16    40 1   
    33    16    41 1   
    34    16    57 1   
    35    17    42 1   
    36    18    19 ar  
    37    18    23 ar  
    38    19    20 ar  
    39    19    43 1   
    40    20    21 ar  
    41    20    44 1   
    42    21    22 ar  
    43    22    23 ar  
    44    22    24 1   
    45    24    25 1   
    46    24    45 1   
    47    25    26 1   
    48    25    27 1   
    49    25    46 1   
    50    26    47 1   
    51    26    48 1   
    52    26    49 1   
    53    27    28 1   
    54    27    29 1   
    55    27    30 1   
    56    28    50 1   
    57    28    51 1   
    58    28    52 1   
    59    29    53 1   
    60    30    54 1   
    61    30    55 1   
    62    30    56 1   
    63    58    61 1   
@<TRIPOS>SUBSTRUCTURE
     1 LIC         1 TEMP              0 ****  ****    0 ROOT
