@<TRIPOS>MOLECULE
LIC
   61    63     1     0     0
SMALL
No Charge or Current Charge


@<TRIPOS>ATOM
      1 N1          -0.1370     0.4350     0.7760 n          1 LIC      -0.256900
      2 C7          -2.2280    -2.6720     0.5790 c3         1 LIC       0.161300
      3 C13         -3.8270    -3.2440    -1.3010 ca         1 LIC      -0.094000
      4 C15         -6.0390    -2.3200     0.1620 ca         1 LIC      -0.107000
      5 C21         -2.8800     3.3950    -0.6970 ca         1 LIC       0.144100
      6 C22         -2.4100     1.4720     0.7270 ca         1 LIC      -0.073000
      7 C24         -1.5420     3.3780    -1.1430 ca         1 LIC      -0.169000
      8 C12         -4.7530    -2.2630     0.7260 ca         1 LIC       0.134000
      9 C11         -6.2220    -2.8380    -1.1310 ca         1 LIC      -0.095000
     10 C14         -5.1150    -3.3000    -1.8620 ca         1 LIC      -0.111000
     11 C9          -3.6350    -2.7290    -0.0030 ca         1 LIC      -0.108300
     12 C1          -0.4850    -0.9180     1.0090 c          1 LIC       0.683100
     13 O4           0.2130    -1.6900     1.6510 o          1 LIC      -0.577100
     14 C2          -1.0710     1.4340     0.2750 ca         1 LIC      -0.100000
     15 C25         -3.3030     2.4410     0.2400 ca         1 LIC      -0.169000
     16 C31         -3.4670     5.3430    -2.0950 c3         1 LIC       0.147900
     17 C23         -0.6470     2.4090    -0.6570 ca         1 LIC      -0.073000
     18 C3           1.2240     0.8670     0.9560 ca         1 LIC       0.316900
     19 C35          1.5220     2.1190     1.5260 ca         1 LIC      -0.321000
     20 C37          2.8670     2.5100     1.5860 ca         1 LIC       0.158900
     21 N39          3.8440     1.7270     1.0960 nb         1 LIC      -0.271000
     22 C41          3.4570     0.5600     0.5480 ca         1 LIC       0.412900
     23 N42          2.2040     0.0970     0.4380 nb         1 LIC      -0.275000
     24 N36          4.4330    -0.2610     0.0130 nu         1 LIC      -0.917100
     25 C43          5.9020    -0.0960     0.0450 c3         1 LIC       0.265500
     26 C45          6.4020    -0.5610     1.4350 c3         1 LIC      -0.109100
     27 C47          6.5650    -0.8580    -1.1790 c3         1 LIC       0.172000
     28 C53          6.1360    -0.2110    -2.5220 c3         1 LIC      -0.120600
     29 O52          6.1200    -2.2260    -1.2100 oh         1 LIC      -0.665000
     30 C51          8.1120    -0.8720    -1.0980 c3         1 LIC      -0.120600
     31 H71         -1.5780    -3.3860     0.0570 h1         1 LIC       0.069700
     32 H72         -2.2450    -2.9540     1.6400 h1         1 LIC       0.069700
     33 H15         -6.8940    -1.9590     0.7280 ha         1 LIC       0.130000
     34 H22         -2.7620     0.7740     1.4840 ha         1 LIC       0.131500
     35 H24         -1.1800     4.1030    -1.8660 ha         1 LIC       0.127000
     36 H11         -7.2190    -2.8800    -1.5660 ha         1 LIC       0.119000
     37 H14         -5.2540    -3.7000    -2.8640 ha         1 LIC       0.119000
     38 H25         -4.3290     2.4600     0.5990 ha         1 LIC       0.127000
     39 H311        -3.1330     4.8960    -3.0400 h1         1 LIC       0.043033
     40 H312        -4.3430     5.9690    -2.3050 h1         1 LIC       0.043033
     41 H313        -2.6700     5.9920    -1.7100 h1         1 LIC       0.043033
     42 H23          0.3750     2.4090    -1.0300 ha         1 LIC       0.131500
     43 H35          0.7380     2.7620     1.9150 ha         1 LIC       0.139000
     44 H37          3.1650     3.4610     2.0240 h4         1 LIC       0.015100
     45 HN36         4.1030    -1.1360    -0.3930 hn         1 LIC       0.519000
     46 H43          6.1540     0.9690    -0.0660 h1         1 LIC       0.075700
     47 H451         6.2490    -1.6380     1.5690 hc         1 LIC       0.046033
     48 H452         7.4680    -0.3430     1.5630 hc         1 LIC       0.046033
     49 H453         5.8670    -0.0380     2.2360 hc         1 LIC       0.046033
     50 H531         6.4400     0.8420    -2.5570 hc         1 LIC       0.043867
     51 H532         6.5990    -0.7230    -3.3750 hc         1 LIC       0.043867
     52 H533         5.0490    -0.2530    -2.6580 hc         1 LIC       0.043867
     53 HO52         6.5760    -2.6580    -1.9640 ho         1 LIC       0.443000
     54 H511         8.4650    -1.4630    -0.2450 hc         1 LIC       0.043867
     55 H512         8.5510    -1.3090    -2.0030 hc         1 LIC       0.043867
     56 H513         8.5030     0.1480    -0.9940 hc         1 LIC       0.043867
     57 O30         -3.8020     4.3220    -1.1370 os         1 LIC      -0.338100
     58 N5          -1.6630    -1.3340     0.4410 ns         1 LIC      -0.516900
     59 H13         -2.9770    -3.6020    -1.8790 ha         1 LIC       0.116000
     60 Cl16        -4.5740    -1.5940     2.3490 cl         1 LIC      -0.192000
     61 HN5         -2.1660    -0.6460    -0.1030 hn         1 LIC       0.322500
@<TRIPOS>BOND
     1     1    12 1   
     2     1    14 1   
     3     1    18 1   
     4     2    11 1   
     5     2    31 1   
     6     2    32 1   
     7     2    58 1   
     8     3    10 ar  
     9     3    11 ar  
    10     3    59 1   
    11     4     8 ar  
    12     4     9 ar  
    13     4    33 1   
    14     5     7 ar  
    15     5    15 ar  
    16     5    57 1   
    17     6    14 ar  
    18     6    15 ar  
    19     6    34 1   
    20     7    17 ar  
    21     7    35 1   
    22     8    11 ar  
    23     8    60 1   
    24     9    10 ar  
    25     9    36 1   
    26    10    37 1   
    27    12    13 2   
    28    12    58 1   
    29    14    17 ar  
    30    15    38 1   
    31    16    39 1   
    32    16    40 1   
    33    16    41 1   
    34    16    57 1   
    35    17    42 1   
    36    18    19 ar  
    37    18    23 ar  
    38    19    20 ar  
    39    19    43 1   
    40    20    21 ar  
    41    20    44 1   
    42    21    22 ar  
    43    22    23 ar  
    44    22    24 1   
    45    24    25 1   
    46    24    45 1   
    47    25    26 1   
    48    25    27 1   
    49    25    46 1   
    50    26    47 1   
    51    26    48 1   
    52    26    49 1   
    53    27    28 1   
    54    27    29 1   
    55    27    30 1   
    56    28    50 1   
    57    28    51 1   
    58    28    52 1   
    59    29    53 1   
    60    30    54 1   
    61    30    55 1   
    62    30    56 1   
    63    58    61 1   
@<TRIPOS>SUBSTRUCTURE
     1 LIC         1 TEMP              0 ****  ****    0 ROOT
