@<TRIPOS>MOLECULE
LID
   43    46     1     0     0
SMALL
bcc


@<TRIPOS>ATOM
      1 C5           2.4230    -0.3210     0.1970 ca         1 LID       0.919900
      2 C8          -1.8980    -0.0300     0.1110 cc         1 LID       0.664700
      3 C10         -1.3260    -2.4550     0.6610 c3         1 LID       0.050300
      4 N12         -3.2310    -0.2760     0.1670 nu         1 LID      -0.709600
      5 C13         -4.2810     0.5690    -0.1570 ca         1 LID       0.193600
      6 C15          4.8590    -0.2200     0.1630 ca         1 LID       0.076600
      7 C17          6.9820    -0.0020    -1.0090 ca         1 LID      -0.180000
      8 C20          5.2380     0.8640     0.9490 ca         1 LID       0.157900
      9 C21         -4.1190     1.8870    -0.5900 ca         1 LID      -0.154000
     10 C22         -5.2220     2.6680    -0.9000 ca         1 LID      -0.093000
     11 C24         -6.6900     0.8610    -0.3550 ca         1 LID      -0.088000
     12 C16          5.7640    -0.6230    -0.8130 ca         1 LID       0.157900
     13 C18          7.3040     1.0870    -0.2130 ca         1 LID      -0.082000
     14 C19          6.4310     1.5330     0.7690 ca         1 LID      -0.180000
     15 F27          4.4080     1.2560     1.9180 f          1 LID      -0.130400
     16 N14          3.6550    -0.8930     0.3610 nu         1 LID      -0.745300
     17 N6           2.3780     0.9590    -0.1630 nb         1 LID      -0.761000
     18 N4           1.3820    -1.1290     0.4190 nb         1 LID      -0.768000
     19 C3           0.2260    -0.5310     0.2530 ca         1 LID       0.478800
     20 N7          -1.0210    -1.0590     0.4020 na         1 LID      -0.295000
     21 C11         -1.6540    -3.2270    -0.6060 c3         1 LID      -0.118100
     22 C2           0.0320     0.8070    -0.1140 ca         1 LID      -0.174200
     23 C1           1.1860     1.5330    -0.3160 ca         1 LID       0.526200
     24 N9          -1.3120     1.0930    -0.1930 nd         1 LID      -0.601100
     25 C23         -6.5090     2.1680    -0.7830 ca         1 LID      -0.154000
     26 C25         -5.5910     0.0790    -0.0520 ca         1 LID      -0.038600
     27 CL26        -5.8540    -1.5620     0.4620 cl         1 LID      -0.128400
     28 H101        -2.1360    -2.5170     1.3900 h1         1 LID       0.066700
     29 H102        -0.4510    -2.8790     1.1510 h1         1 LID       0.066700
     30 H12         -3.5020    -1.1690     0.5470 hn         1 LID       0.456800
     31 H17          7.6570    -0.3590    -1.7750 ha         1 LID       0.155500
     32 H21         -3.1260     2.2940    -0.6840 ha         1 LID       0.179000
     33 H22         -5.0620     3.6850    -1.2330 ha         1 LID       0.138000
     34 H24         -7.6840     0.4460    -0.2590 ha         1 LID       0.147000
     35 H18          8.2490     1.5920    -0.3560 ha         1 LID       0.141000
     36 H19          6.6800     2.3760     1.4000 ha         1 LID       0.155500
     37 H14          3.6740    -1.8970     0.4470 hn         1 LID       0.465800
     38 H111        -0.8230    -3.1880    -1.3090 hc         1 LID       0.051033
     39 H112        -1.8440    -4.2710    -0.3590 hc         1 LID       0.051033
     40 H113        -2.5410    -2.8380    -1.1070 hc         1 LID       0.051033
     41 H1           1.1710     2.5770    -0.6090 h4         1 LID       0.038100
     42 H23         -7.3680     2.7800    -1.0210 ha         1 LID       0.139000
     43 F28          5.4280    -1.6660    -1.5800 f          1 LID      -0.130400
@<TRIPOS>BOND
     1     1    16 1   
     2     1    17 ar  
     3     1    18 ar  
     4     2     4 1   
     5     2    20 1   
     6     2    24 2   
     7     3    20 1   
     8     3    21 1   
     9     3    28 1   
    10     3    29 1   
    11     4     5 1   
    12     4    30 1   
    13     5     9 ar  
    14     5    26 ar  
    15     6     8 ar  
    16     6    12 ar  
    17     6    16 1   
    18     7    12 ar  
    19     7    13 ar  
    20     7    31 1   
    21     8    14 ar  
    22     8    15 1   
    23     9    10 ar  
    24     9    32 1   
    25    10    25 ar  
    26    10    33 1   
    27    11    25 ar  
    28    11    26 ar  
    29    11    34 1   
    30    12    43 1   
    31    13    14 ar  
    32    13    35 1   
    33    14    36 1   
    34    16    37 1   
    35    17    23 ar  
    36    18    19 ar  
    37    19    20 1   
    38    19    22 ar  
    39    21    38 1   
    40    21    39 1   
    41    21    40 1   
    42    22    23 ar  
    43    22    24 1   
    44    23    41 1   
    45    25    42 1   
    46    26    27 1   
@<TRIPOS>SUBSTRUCTURE
     1 LID         1 TEMP              0 ****  ****    0 ROOT
