@<TRIPOS>MOLECULE
LID
   43    46     1     0     0
SMALL
No Charge or Current Charge


@<TRIPOS>ATOM
      1 C5           2.4000    -0.1650    -0.0090 ca         1 LID       0.393900
      2 C8          -2.0160    -0.0930    -0.1200 cc         1 LID       0.664700
      3 C10         -1.3070    -2.5390     0.3590 c3         1 LID       0.079600
      4 N12         -3.3580    -0.2950    -0.0960 nu         1 LID      -0.903200
      5 C13         -4.4580     0.5650    -0.1930 ca         1 LID       0.332000
      6 C15          4.9800    -0.1370     0.1440 ca         1 LID       0.215000
      7 C17          7.3440    -0.2350    -0.5410 ca         1 LID      -0.162000
      8 C20          5.2950     1.0220     0.9110 ca         1 LID       0.193000
      9 C21         -4.4370     1.6810    -1.0510 ca         1 LID      -0.136000
     10 C22         -5.5550     2.5290    -1.1500 ca         1 LID      -0.075000
     11 C24         -6.7480     1.1430     0.4540 ca         1 LID      -0.070000
     12 C16          6.0410    -0.7610    -0.5640 ca         1 LID       0.193000
     13 C18          7.6260     0.9220     0.2020 ca         1 LID      -0.064000
     14 C19          6.6010     1.5430     0.9310 ca         1 LID      -0.162000
     15 F27          4.3590     1.6280     1.6820 f          1 LID      -0.165500
     16 N14          3.6750    -0.7040     0.0950 nu         1 LID      -0.938900
     17 N6           2.2840     1.1570    -0.2680 nb         1 LID      -0.235000
     18 N4           1.3950    -1.0530     0.1340 nb         1 LID      -0.242000
     19 C3           0.1530    -0.5450     0.0180 ca         1 LID       0.150500
     20 N7          -1.0900    -1.1040     0.1010 na         1 LID      -0.324300
     21 C11         -1.5210    -3.3450    -0.9350 c3         1 LID      -0.118100
     22 C2          -0.0770     0.7870    -0.2380 ca         1 LID      -0.043600
     23 C1           1.0290     1.6450    -0.3810 ca         1 LID       0.197900
     24 N9          -1.4380     1.0920    -0.3220 nd         1 LID      -0.601100
     25 C23         -6.7090     2.2620    -0.3950 ca         1 LID      -0.136000
     26 C25         -5.6310     0.2950     0.5530 ca         1 LID       0.053000
     27 Cl26        -5.7200    -1.1100     1.6250 cl         1 LID      -0.220000
     28 H101        -2.1790    -2.6610     1.0150 h1         1 LID       0.066700
     29 H102        -0.4390    -2.9450     0.8960 h1         1 LID       0.066700
     30 H12         -3.5810    -1.1930     0.3190 hn         1 LID       0.512000
     31 H17          8.1350    -0.7290    -1.1010 ha         1 LID       0.137500
     32 H21         -3.5580     1.8900    -1.6530 ha         1 LID       0.161000
     33 H22         -5.5280     3.3900    -1.8150 ha         1 LID       0.120000
     34 H24         -7.6430     0.9310     1.0340 ha         1 LID       0.129000
     35 H18          8.6360     1.3270     0.2210 ha         1 LID       0.123000
     36 H19          6.8180     2.4270     1.5260 ha         1 LID       0.137500
     37 H14          3.6720    -1.7150    -0.0570 hn         1 LID       0.521000
     38 H111        -0.6450    -3.2610    -1.5900 hc         1 LID       0.051033
     39 H112        -1.6760    -4.4060    -0.7020 hc         1 LID       0.051033
     40 H113        -2.3990    -2.9800    -1.4800 hc         1 LID       0.051033
     41 H1           0.9170     2.7080    -0.5860 h4         1 LID       0.038100
     42 H23         -7.5740     2.9170    -0.4720 ha         1 LID       0.121000
     43 F28          5.8080    -1.8820    -1.2890 f          1 LID      -0.165500
@<TRIPOS>BOND
     1     1    16 1   
     2     1    17 ar  
     3     1    18 ar  
     4     2     4 1   
     5     2    20 1   
     6     2    24 2   
     7     3    20 1   
     8     3    21 1   
     9     3    28 1   
    10     3    29 1   
    11     4     5 1   
    12     4    30 1   
    13     5     9 ar  
    14     5    26 ar  
    15     6     8 ar  
    16     6    12 ar  
    17     6    16 1   
    18     7    12 ar  
    19     7    13 ar  
    20     7    31 1   
    21     8    14 ar  
    22     8    15 1   
    23     9    10 ar  
    24     9    32 1   
    25    10    25 ar  
    26    10    33 1   
    27    11    25 ar  
    28    11    26 ar  
    29    11    34 1   
    30    12    43 1   
    31    13    14 ar  
    32    13    35 1   
    33    14    36 1   
    34    16    37 1   
    35    17    23 ar  
    36    18    19 ar  
    37    19    20 1   
    38    19    22 ar  
    39    21    38 1   
    40    21    39 1   
    41    21    40 1   
    42    22    23 ar  
    43    22    24 1   
    44    23    41 1   
    45    25    42 1   
    46    26    27 1   
@<TRIPOS>SUBSTRUCTURE
     1 LID         1 TEMP              0 ****  ****    0 ROOT
