@<TRIPOS>MOLECULE
LIE
   45    48     1     0     0
SMALL
abcg2


@<TRIPOS>ATOM
      1 C5           2.1140     0.3150     0.0310 ca         1 LIE       0.346300
      2 C6          -0.0630     0.5840     0.0040 ca         1 LIE       0.139500
      3 C7          -1.5900     2.5900    -0.0700 c3         1 LIE       0.112300
      4 C10         -2.1900     0.0860    -0.0210 cc         1 LIE       0.676700
      5 N12         -3.5210     0.3140    -0.0590 nu         1 LIE      -0.901200
      6 C13          4.4350     0.1250     0.0140 ca         1 LIE       0.024100
      7 C15          4.9820    -0.3180    -1.1800 ca         1 LIE       0.207500
      8 C17          6.2410    -0.9650     1.1940 ca         1 LIE      -0.166500
      9 C26         -1.0460     3.2920     1.1660 c3         1 LIE      -0.111100
     10 C36         -5.8490    -0.1450    -0.2420 ca         1 LIE       0.103000
     11 C39         -6.9550    -0.9600    -0.2500 ca         1 LIE      -0.117000
     12 C35         -6.7850    -2.3260    -0.0670 ca         1 LIE      -0.115000
     13 C38         -5.5090    -2.8320     0.1220 ca         1 LIE      -0.094000
     14 C37         -4.3980    -1.9970     0.1310 ca         1 LIE      -0.114000
     15 C34         -4.5500    -0.6240    -0.0560 ca         1 LIE       0.284000
     16 N11         -1.6130    -1.0830     0.0200 nd         1 LIE      -0.612100
     17 C3          -0.2720    -0.8040     0.0350 ca         1 LIE      -0.022600
     18 C1           0.8640    -1.5800     0.0670 ca         1 LIE       0.188900
     19 N8          -1.3010     1.1510    -0.0250 na         1 LIE      -0.323300
     20 C25         -1.0940     3.1980    -1.3730 c3         1 LIE      -0.111100
     21 N2           1.1130     1.1760    -0.0010 nb         1 LIE      -0.180000
     22 N4           2.0680    -0.9970     0.0660 nb         1 LIE      -0.244000
     23 O9           3.3280     0.9180     0.0280 os         1 LIE      -0.317400
     24 F19          4.3450    -0.0040    -2.3100 f          1 LIE      -0.158000
     25 C18          6.1420    -1.0650    -1.2190 ca         1 LIE      -0.166500
     26 C14          6.7660    -1.3830    -0.0200 ca         1 LIE      -0.054000
     27 C16          5.0780    -0.2220     1.1900 ca         1 LIE       0.207500
     28 F20          4.5360     0.1850     2.3410 f          1 LIE      -0.158000
     29 H7          -2.6750     2.6920    -0.0470 h1         1 LIE       0.043700
     30 HN12        -3.8180     1.2730    -0.1400 hn         1 LIE       0.514000
     31 H17          6.7220    -1.2130     2.1310 ha         1 LIE       0.139000
     32 H261        -1.3530     4.3370     1.1470 hc         1 LIE       0.055700
     33 H262        -1.4370     2.8410     2.0770 hc         1 LIE       0.055700
     34 H263         0.0410     3.2610     1.1990 hc         1 LIE       0.055700
     35 H39         -7.9360    -0.5280    -0.4020 ha         1 LIE       0.132000
     36 H35         -7.6440    -2.9820    -0.0710 ha         1 LIE       0.121000
     37 H38         -5.3630    -3.8940     0.2660 ha         1 LIE       0.121000
     38 H37         -3.4130    -2.4100     0.2780 ha         1 LIE       0.160000
     39 H1           0.8330    -2.6630     0.0930 h4         1 LIE       0.041100
     40 H251        -0.0080     3.1550    -1.4450 hc         1 LIE       0.055700
     41 H252        -1.5220     2.6850    -2.2340 hc         1 LIE       0.055700
     42 H253        -1.3930     4.2450    -1.4210 hc         1 LIE       0.055700
     43 H18          6.5460    -1.3900    -2.1670 ha         1 LIE       0.139000
     44 H14          7.6760    -1.9660    -0.0330 ha         1 LIE       0.124000
     45 F40         -6.0050     1.1820    -0.4180 f          1 LIE      -0.192000
@<TRIPOS>BOND
     1     1    21 ar  
     2     1    22 ar  
     3     1    23 1   
     4     2    17 ar  
     5     2    19 1   
     6     2    21 ar  
     7     3     9 1   
     8     3    19 1   
     9     3    20 1   
    10     3    29 1   
    11     4     5 1   
    12     4    16 2   
    13     4    19 1   
    14     5    15 1   
    15     5    30 1   
    16     6     7 ar  
    17     6    23 1   
    18     6    27 ar  
    19     7    24 1   
    20     7    25 ar  
    21     8    26 ar  
    22     8    27 ar  
    23     8    31 1   
    24     9    32 1   
    25     9    33 1   
    26     9    34 1   
    27    10    11 ar  
    28    10    15 ar  
    29    10    45 1   
    30    11    12 ar  
    31    11    35 1   
    32    12    13 ar  
    33    12    36 1   
    34    13    14 ar  
    35    13    37 1   
    36    14    15 ar  
    37    14    38 1   
    38    16    17 1   
    39    17    18 ar  
    40    18    22 ar  
    41    18    39 1   
    42    20    40 1   
    43    20    41 1   
    44    20    42 1   
    45    25    26 ar  
    46    25    43 1   
    47    26    44 1   
    48    27    28 1   
@<TRIPOS>SUBSTRUCTURE
     1 LIE         1 TEMP              0 ****  ****    0 ROOT
