@<TRIPOS>MOLECULE
LIE
   45    48     1     0     0
SMALL
No Charge or Current Charge


@<TRIPOS>ATOM
      1 C5           2.1690     0.2590     0.3480 ca         1 LIE       0.346300
      2 C6          -0.0990     0.6110     0.2050 ca         1 LIE       0.139500
      3 C7          -1.6030     2.6240     0.0730 c3         1 LIE       0.112300
      4 C10         -2.2610     0.1160     0.0890 cc         1 LIE       0.676700
      5 N12         -3.6030     0.2860    -0.0370 nu         1 LIE      -0.901200
      6 C13          4.5770     0.0830     0.1300 ca         1 LIE       0.024100
      7 C15          4.8020    -0.4280    -1.1670 ca         1 LIE       0.207500
      8 C17          6.7150    -0.8590     0.8440 ca         1 LIE      -0.166500
      9 C26         -1.1480     3.3360     1.3650 c3         1 LIE      -0.111100
     10 C36         -5.7930    -0.3020    -0.9480 ca         1 LIE       0.103000
     11 C39         -6.8820    -1.1860    -1.0420 ca         1 LIE      -0.117000
     12 C35         -6.8740    -2.3870    -0.3140 ca         1 LIE      -0.115000
     13 C38         -5.7800    -2.7000     0.5100 ca         1 LIE      -0.094000
     14 C37         -4.6900    -1.8140     0.6030 ca         1 LIE      -0.114000
     15 C34         -4.6770    -0.6120    -0.1320 ca         1 LIE       0.284000
     16 N11         -1.6700    -1.0770     0.1540 nd         1 LIE      -0.612100
     17 C3          -0.3180    -0.7450     0.2310 ca         1 LIE      -0.022600
     18 C1           0.7910    -1.6040     0.3250 ca         1 LIE       0.188900
     19 N8          -1.3490     1.1660     0.1110 na         1 LIE      -0.323300
     20 C25         -1.0250     3.2870    -1.1960 c3         1 LIE      -0.111100
     21 N2           1.1410     1.1370     0.2650 nb         1 LIE      -0.180000
     22 N4           2.0400    -1.0950     0.3870 nb         1 LIE      -0.244000
     23 O9           3.4330     0.8050     0.4230 os         1 LIE      -0.317400
     24 F19          3.9000    -0.2170    -2.1540 f          1 LIE      -0.158000
     25 C18          5.9710    -1.1540    -1.4520 ca         1 LIE      -0.166500
     26 C14          6.9290    -1.3730    -0.4470 ca         1 LIE      -0.054000
     27 C16          5.5460    -0.1320     1.1290 ca         1 LIE       0.207500
     28 F20          5.3570     0.3540     2.3780 f          1 LIE      -0.158000
     29 H7          -2.6900     2.7640     0.0210 h1         1 LIE       0.043700
     30 HN12        -3.8180     1.2180    -0.3750 hn         1 LIE       0.514000
     31 H17          7.4530    -1.0220     1.6260 ha         1 LIE       0.139000
     32 H261        -1.4630     4.3860     1.3560 hc         1 LIE       0.055700
     33 H262        -1.5930     2.8570     2.2450 hc         1 LIE       0.055700
     34 H263        -0.0580     3.3110     1.4740 hc         1 LIE       0.055700
     35 H39         -7.7290    -0.9360    -1.6760 ha         1 LIE       0.132000
     36 H35         -7.7170    -3.0730    -0.3840 ha         1 LIE       0.121000
     37 H38         -5.7770    -3.6260     1.0810 ha         1 LIE       0.121000
     38 H37         -3.8580    -2.0610     1.2560 ha         1 LIE       0.160000
     39 H1           0.6850    -2.6870     0.3510 h4         1 LIE       0.041100
     40 H251         0.0700     3.2490    -1.2020 hc         1 LIE       0.055700
     41 H252        -1.3920     2.7790    -2.0960 hc         1 LIE       0.055700
     42 H253        -1.3290     4.3390    -1.2520 hc         1 LIE       0.055700
     43 H18          6.1330    -1.5430    -2.4540 ha         1 LIE       0.139000
     44 H14          7.8350    -1.9350    -0.6680 ha         1 LIE       0.124000
     45 F40         -5.8240     0.8550    -1.6540 f          1 LIE      -0.192000
@<TRIPOS>BOND
     1     1    21 ar  
     2     1    22 ar  
     3     1    23 1   
     4     2    17 ar  
     5     2    19 1   
     6     2    21 ar  
     7     3     9 1   
     8     3    19 1   
     9     3    20 1   
    10     3    29 1   
    11     4     5 1   
    12     4    16 2   
    13     4    19 1   
    14     5    15 1   
    15     5    30 1   
    16     6     7 ar  
    17     6    23 1   
    18     6    27 ar  
    19     7    24 1   
    20     7    25 ar  
    21     8    26 ar  
    22     8    27 ar  
    23     8    31 1   
    24     9    32 1   
    25     9    33 1   
    26     9    34 1   
    27    10    11 ar  
    28    10    15 ar  
    29    10    45 1   
    30    11    12 ar  
    31    11    35 1   
    32    12    13 ar  
    33    12    36 1   
    34    13    14 ar  
    35    13    37 1   
    36    14    15 ar  
    37    14    38 1   
    38    16    17 1   
    39    17    18 ar  
    40    18    22 ar  
    41    18    39 1   
    42    20    40 1   
    43    20    41 1   
    44    20    42 1   
    45    25    26 ar  
    46    25    43 1   
    47    26    44 1   
    48    27    28 1   
@<TRIPOS>SUBSTRUCTURE
     1 LIE         1 TEMP              0 ****  ****    0 ROOT
