@<TRIPOS>MOLECULE
LIF
   58    62     1     0     0
SMALL
bcc


@<TRIPOS>ATOM
      1 F1           7.2280     0.4980     2.6000 f          1 LIF      -0.231967
      2 C2           7.4480    -0.8100     2.4060 c3         1 LIF       0.725200
      3 F3           6.7920    -1.4540     3.3820 f          1 LIF      -0.231967
      4 F4           8.7520    -1.0220     2.6090 f          1 LIF      -0.231967
      5 C5           7.0010    -1.2550     1.0490 ca         1 LIF      -0.195300
      6 C6           5.7480    -0.8510     0.6020 ca         1 LIF      -0.057000
      7 C10          7.8090    -2.0610     0.2610 ca         1 LIF      -0.066000
      8 C9           7.3610    -2.4640    -0.9870 ca         1 LIF      -0.158000
      9 C8           6.1110    -2.0710    -1.4090 ca         1 LIF       0.122900
     10 F11          5.6740    -2.4650    -2.6100 f          1 LIF      -0.140900
     11 C7           5.2770    -1.2650    -0.6370 ca         1 LIF       0.030600
     12 N12          4.0350    -0.8820    -1.1440 ns         1 LIF      -0.495100
     13 C13          2.8720    -0.9360    -0.4130 c          1 LIF       0.802100
     14 O14          2.8450    -1.2500     0.7610 o          1 LIF      -0.596100
     15 N15          1.7760    -0.5910    -1.1500 ns         1 LIF      -0.483100
     16 C16          0.4380    -0.5830    -0.7600 ca         1 LIF       0.087600
     17 C17         -0.5000    -0.2810    -1.7530 ca         1 LIF      -0.174000
     18 C18         -1.8510    -0.2560    -1.4710 ca         1 LIF      -0.091500
     19 C19         -2.3190    -0.5280    -0.1860 ca         1 LIF      -0.057800
     20 C20         -1.3810    -0.8200     0.7990 ca         1 LIF      -0.091500
     21 C21         -0.0200    -0.8510     0.5310 ca         1 LIF      -0.174000
     22 C22         -3.7560    -0.5180     0.1140 cc         1 LIF      -0.045400
     23 C23         -4.6350     0.5100    -0.0480 cd         1 LIF       0.101900
     24 C32         -4.4860     1.8900    -0.4800 ca         1 LIF      -0.082800
     25 C33         -5.5410     2.5630    -1.1090 ca         1 LIF      -0.060000
     26 C34         -5.4030     3.8730    -1.5190 ca         1 LIF      -0.198500
     27 C35         -4.2030     4.5580    -1.3120 ca         1 LIF       0.156100
     28 C36         -3.1480     3.9020    -0.6790 ca         1 LIF      -0.198500
     29 C37         -3.2980     2.5870    -0.2690 ca         1 LIF      -0.060000
     30 O38         -4.1570     5.8280    -1.7450 os         1 LIF      -0.314900
     31 C39         -2.9640     6.5650    -1.5570 c3         1 LIF       0.124700
     32 O24         -5.9050     0.1210     0.2910 os         1 LIF      -0.273400
     33 C25         -5.8450    -1.1560     0.6810 ca         1 LIF       0.621600
     34 N26         -6.9130    -1.8250     1.0700 nb         1 LIF      -0.729000
     35 C30         -4.5450    -1.6170     0.6000 ca         1 LIF      -0.409400
     36 C29         -4.3690    -2.9740     0.9440 ca         1 LIF       0.767200
     37 N31         -3.1900    -3.6010     0.8920 nv         1 LIF      -0.956500
     38 N28         -5.4360    -3.6710     1.3540 nb         1 LIF      -0.822000
     39 C27         -6.6190    -3.0750     1.3980 ca         1 LIF       0.711900
     40 H6           5.1330    -0.1990     1.2060 ha         1 LIF       0.172000
     41 H10          8.7860    -2.3810     0.5930 ha         1 LIF       0.157000
     42 H9           7.9730    -3.0910    -1.6210 ha         1 LIF       0.160000
     43 H12          3.9680    -0.7760    -2.1450 hn         1 LIF       0.326500
     44 H15          1.9290    -0.3460    -2.1170 hn         1 LIF       0.316500
     45 H17         -0.1650    -0.0690    -2.7620 ha         1 LIF       0.151000
     46 H18         -2.5520    -0.0310    -2.2640 ha         1 LIF       0.145000
     47 H20         -1.7100    -1.0180     1.8120 ha         1 LIF       0.145000
     48 H21          0.6660    -1.0770     1.3300 ha         1 LIF       0.151000
     49 H33         -6.4810     2.0600    -1.2940 ha         1 LIF       0.145000
     50 H34         -6.2270     4.3770    -2.0080 ha         1 LIF       0.143500
     51 H36         -2.2080     4.4010    -0.4840 ha         1 LIF       0.143500
     52 H37         -2.4720     2.1100     0.2410 ha         1 LIF       0.145000
     53 H391        -2.7150     6.6740    -0.4980 h1         1 LIF       0.042367
     54 H392        -2.1180     6.1090    -2.0750 h1         1 LIF       0.042367
     55 H393        -3.1430     7.5510    -1.9780 h1         1 LIF       0.042367
     56 H311        -3.1510    -4.5910     1.0610 hn         1 LIF       0.447800
     57 H312        -2.3830    -3.1690     0.4760 hn         1 LIF       0.447800
     58 H27         -7.4450    -3.6890     1.7380 h5         1 LIF       0.051100
@<TRIPOS>BOND
     1     1     2 1   
     2     2     3 1   
     3     2     4 1   
     4     2     5 1   
     5     5     6 ar  
     6     5     7 ar  
     7     6    11 ar  
     8     6    40 1   
     9     7     8 ar  
    10     7    41 1   
    11     8     9 ar  
    12     8    42 1   
    13     9    10 1   
    14     9    11 ar  
    15    11    12 1   
    16    12    13 1   
    17    12    43 1   
    18    13    14 2   
    19    13    15 1   
    20    15    16 1   
    21    15    44 1   
    22    16    17 ar  
    23    16    21 ar  
    24    17    18 ar  
    25    17    45 1   
    26    18    19 ar  
    27    18    46 1   
    28    19    20 ar  
    29    19    22 1   
    30    20    21 ar  
    31    20    47 1   
    32    21    48 1   
    33    22    23 2   
    34    22    35 1   
    35    23    24 1   
    36    23    32 1   
    37    24    25 ar  
    38    24    29 ar  
    39    25    26 ar  
    40    25    49 1   
    41    26    27 ar  
    42    26    50 1   
    43    27    28 ar  
    44    27    30 1   
    45    28    29 ar  
    46    28    51 1   
    47    29    52 1   
    48    30    31 1   
    49    31    53 1   
    50    31    54 1   
    51    31    55 1   
    52    32    33 1   
    53    33    34 ar  
    54    33    35 ar  
    55    34    39 ar  
    56    35    36 ar  
    57    36    37 1   
    58    36    38 ar  
    59    37    56 1   
    60    37    57 1   
    61    38    39 ar  
    62    39    58 1   
@<TRIPOS>SUBSTRUCTURE
     1 LIF         1 TEMP              0 ****  ****    0 ROOT
