@<TRIPOS>MOLECULE
LIF
   58    62     1     0     0
SMALL
No Charge or Current Charge


@<TRIPOS>ATOM
      1 F1           7.6440    -0.2250     3.1260 f          1 LIF      -0.110667
      2 C2           7.6870    -1.4260     2.5080 c3         1 LIF       0.361300
      3 F3           6.9220    -2.2720     3.2360 f          1 LIF      -0.110667
      4 F4           8.9590    -1.8760     2.6070 f          1 LIF      -0.110667
      5 C5           7.2020    -1.3230     1.0570 ca         1 LIF      -0.195300
      6 C6           5.8180    -1.2160     0.7880 ca         1 LIF      -0.039000
      7 C10          8.1180    -1.3130    -0.0180 ca         1 LIF      -0.048000
      8 C9           7.6530    -1.2090    -1.3370 ca         1 LIF      -0.140000
      9 C8           6.2790    -1.1110    -1.5940 ca         1 LIF       0.158000
     10 F11          5.8560    -1.0110    -2.8760 f          1 LIF      -0.176000
     11 C7           5.3430    -1.1120    -0.5400 ca         1 LIF      -0.062000
     12 N12          3.9590    -1.0040    -0.8750 ns         1 LIF      -0.169000
     13 C13          2.8030    -0.9980    -0.1050 c          1 LIF       0.668100
     14 O14          2.7900    -1.0990     1.1160 o          1 LIF      -0.596100
     15 N15          1.6690    -0.8620    -0.8940 ns         1 LIF      -0.157000
     16 C16          0.2830    -0.8070    -0.5810 ca         1 LIF      -0.005000
     17 C17         -0.6180    -0.6380    -1.6490 ca         1 LIF      -0.156000
     18 C18         -2.0030    -0.5730    -1.4190 ca         1 LIF      -0.073500
     19 C19         -2.5080    -0.6720    -0.1110 ca         1 LIF      -0.057800
     20 C20         -1.6160    -0.8470     0.9610 ca         1 LIF      -0.073500
     21 C21         -0.2300    -0.9130     0.7310 ca         1 LIF      -0.156000
     22 C22         -3.9440    -0.6080     0.1300 cc         1 LIF      -0.045400
     23 C23         -4.7670     0.4800    -0.1620 cd         1 LIF       0.101900
     24 C32         -4.4970     1.8730    -0.5950 ca         1 LIF      -0.082800
     25 C33         -5.5710     2.7000    -0.9960 ca         1 LIF      -0.042000
     26 C34         -5.3450     4.0230    -1.4120 ca         1 LIF      -0.180500
     27 C35         -4.0480     4.5520    -1.4310 ca         1 LIF       0.156100
     28 C36         -2.9690     3.7450    -1.0210 ca         1 LIF      -0.180500
     29 C37         -3.1930     2.4200    -0.6050 ca         1 LIF      -0.042000
     30 O38         -3.8880     5.8580    -1.8490 os         1 LIF      -0.338100
     31 C39         -2.5980     6.4930    -1.9040 c3         1 LIF       0.147900
     32 O24         -6.0670     0.1650     0.1650 os         1 LIF      -0.273400
     33 C25         -6.1050    -1.1060     0.6540 ca         1 LIF       0.293300
     34 N26         -7.1860    -1.7900     1.0620 nb         1 LIF      -0.203000
     35 C30         -4.8350    -1.6260     0.6500 ca         1 LIF      -0.278800
     36 C29         -4.6570    -2.9370     1.0870 ca         1 LIF       0.438900
     37 N31         -3.4520    -3.5520     1.0990 nv         1 LIF      -1.066900
     38 N28         -5.7060    -3.6650     1.5070 nb         1 LIF      -0.296000
     39 C27         -6.9200    -3.0530     1.4770 ca         1 LIF       0.185900
     40 H6           5.1290    -1.2120     1.6270 ha         1 LIF       0.154000
     41 H10          9.1890    -1.3820     0.1610 ha         1 LIF       0.139000
     42 H9           8.3580    -1.2020    -2.1640 ha         1 LIF       0.142000
     43 H12          3.7920    -0.9140    -1.8690 hn         1 LIF       0.160000
     44 H15          1.8620    -0.7880    -1.8840 hn         1 LIF       0.150000
     45 H17         -0.2450    -0.5560    -2.6680 ha         1 LIF       0.133000
     46 H18         -2.6850    -0.4430    -2.2560 ha         1 LIF       0.127000
     47 H20         -2.0000    -0.9260     1.9760 ha         1 LIF       0.127000
     48 H21          0.4230    -1.0470     1.5870 ha         1 LIF       0.133000
     49 H33         -6.5890     2.3170    -0.9980 ha         1 LIF       0.127000
     50 H34         -6.1830     4.6410    -1.7240 ha         1 LIF       0.125500
     51 H36         -1.9520     4.1260    -1.0110 ha         1 LIF       0.125500
     52 H37         -2.3410     1.8410    -0.2680 ha         1 LIF       0.127000
     53 H391        -2.1360     6.5240    -0.9090 h1         1 LIF       0.042367
     54 H392        -1.9280     5.9560    -2.5880 h1         1 LIF       0.042367
     55 H393        -2.6970     7.5240    -2.2650 h1         1 LIF       0.042367
     56 H311        -3.4310    -4.5650     1.1760 hn         1 LIF       0.503000
     57 H312        -2.6900    -3.1110     0.5910 hn         1 LIF       0.503000
     58 H27         -7.7710    -3.6420     1.8180 h5         1 LIF       0.051100
@<TRIPOS>BOND
     1     1     2 1   
     2     2     3 1   
     3     2     4 1   
     4     2     5 1   
     5     5     6 ar  
     6     5     7 ar  
     7     6    11 ar  
     8     6    40 1   
     9     7     8 ar  
    10     7    41 1   
    11     8     9 ar  
    12     8    42 1   
    13     9    10 1   
    14     9    11 ar  
    15    11    12 1   
    16    12    13 1   
    17    12    43 1   
    18    13    14 2   
    19    13    15 1   
    20    15    16 1   
    21    15    44 1   
    22    16    17 ar  
    23    16    21 ar  
    24    17    18 ar  
    25    17    45 1   
    26    18    19 ar  
    27    18    46 1   
    28    19    20 ar  
    29    19    22 1   
    30    20    21 ar  
    31    20    47 1   
    32    21    48 1   
    33    22    23 2   
    34    22    35 1   
    35    23    24 1   
    36    23    32 1   
    37    24    25 ar  
    38    24    29 ar  
    39    25    26 ar  
    40    25    49 1   
    41    26    27 ar  
    42    26    50 1   
    43    27    28 ar  
    44    27    30 1   
    45    28    29 ar  
    46    28    51 1   
    47    29    52 1   
    48    30    31 1   
    49    31    53 1   
    50    31    54 1   
    51    31    55 1   
    52    32    33 1   
    53    33    34 ar  
    54    33    35 ar  
    55    34    39 ar  
    56    35    36 ar  
    57    36    37 1   
    58    36    38 ar  
    59    37    56 1   
    60    37    57 1   
    61    38    39 ar  
    62    39    58 1   
@<TRIPOS>SUBSTRUCTURE
     1 LIF         1 TEMP              0 ****  ****    0 ROOT
