@<TRIPOS>MOLECULE
LIG
   29    32     1     0     0
SMALL
bcc


@<TRIPOS>ATOM
      1 N1           1.8950     0.4510     0.6970 na         1 LIG      -0.002600
      2 N3           2.1350     0.4910    -0.6100 nc         1 LIG      -0.472800
      3 C4           0.9540     0.2500    -1.1460 cd         1 LIG       0.351800
      4 C5          -0.0470     0.0560    -0.1880 cd         1 LIG      -0.248600
      5 C6           0.5970     0.1930     1.0220 cc         1 LIG      -0.032300
      6 C7           0.1140     0.1020     2.3900 ca         1 LIG       0.030000
      7 C8           0.9550     0.2090     3.4980 ca         1 LIG      -0.240800
      8 C10          0.4110     0.1090     4.7680 ca         1 LIG       0.405700
      9 N12         -0.8800    -0.0870     5.0060 nb         1 LIG      -0.659000
     10 C13         -1.6810    -0.1900     3.9510 ca         1 LIG       0.405700
     11 C15         -1.2420    -0.1030     2.6410 ca         1 LIG      -0.240800
     12 C17         -1.3600    -0.2210    -0.8430 c5         1 LIG       0.051200
     13 C20         -0.9750    -0.1560    -2.3110 ca         1 LIG      -0.084300
     14 C21          0.3930     0.1230    -2.4810 ca         1 LIG      -0.118500
     15 C22          0.9490     0.2280    -3.7460 ca         1 LIG      -0.090000
     16 C24          0.1240     0.0510    -4.8510 ca         1 LIG      -0.133000
     17 C26         -1.2290    -0.2260    -4.6880 ca         1 LIG      -0.122000
     18 C28         -1.7870    -0.3310    -3.4160 ca         1 LIG      -0.119000
     19 HN1          2.6580     0.6220     1.3320 hn         1 LIG       0.323700
     20 HC8          2.0210     0.3630     3.4020 ha         1 LIG       0.140000
     21 HC10         1.0580     0.1930     5.6330 h4         1 LIG       0.021600
     22 HC13        -2.7340    -0.3480     4.1530 h4         1 LIG       0.021600
     23 HC15        -1.9590    -0.1920     1.8360 ha         1 LIG       0.140000
     24 H171        -2.1270     0.5200    -0.6000 hc         1 LIG       0.067200
     25 H172        -1.7720    -1.1980    -0.5780 hc         1 LIG       0.067200
     26 HC22         2.0030     0.4420    -3.8750 ha         1 LIG       0.143000
     27 HC24         0.5390     0.1310    -5.8470 ha         1 LIG       0.132000
     28 HC26        -1.8560    -0.3620    -5.5600 ha         1 LIG       0.131000
     29 HC28        -2.8420    -0.5440    -3.2990 ha         1 LIG       0.132000
@<TRIPOS>BOND
     1     1     2 1   
     2     1     5 1   
     3     1    19 1   
     4     2     3 2   
     5     3     4 1   
     6     3    14 1   
     7     4     5 2   
     8     4    12 1   
     9     5     6 1   
    10     6     7 ar  
    11     6    11 ar  
    12     7     8 ar  
    13     7    20 1   
    14     8     9 ar  
    15     8    21 1   
    16     9    10 ar  
    17    10    11 ar  
    18    10    22 1   
    19    11    23 1   
    20    12    13 1   
    21    12    24 1   
    22    12    25 1   
    23    13    14 ar  
    24    13    18 ar  
    25    14    15 ar  
    26    15    16 ar  
    27    15    26 1   
    28    16    17 ar  
    29    16    27 1   
    30    17    18 ar  
    31    17    28 1   
    32    18    29 1   
@<TRIPOS>SUBSTRUCTURE
     1 LIG         1 TEMP              0 ****  ****    0 ROOT
