@<TRIPOS>MOLECULE
LIH
   42    45     1     0     0
SMALL
bcc


@<TRIPOS>ATOM
      1 C4A         -0.0260    -0.3340    -2.8980 ca         1 LIH      -0.407600
      2 C4          -1.0520    -0.9540    -3.7130 ca         1 LIH       0.778200
      3 C2          -0.4050     0.3150    -5.4990 ca         1 LIH       0.969900
      4 C8A          0.6580     0.7320    -3.5450 ca         1 LIH       0.743300
      5 C5           0.3380    -0.6860    -1.5780 ca         1 LIH       0.059700
      6 C6           1.2780     0.1130    -0.9380 ca         1 LIH      -0.296600
      7 C7           1.8230     1.1890    -1.6460 ca         1 LIH       0.470200
      8 C5A         -0.2060    -1.8930    -0.8730 c3         1 LIH      -0.070800
      9 C11          0.7880    -0.0960     2.7450 ca         1 LIH       0.190600
     10 C12          1.9600    -0.5820     3.2960 ca         1 LIH      -0.226000
     11 C13          2.0800    -0.7730     4.6840 ca         1 LIH      -0.074000
     12 C8           1.0600    -0.4740     5.5430 ca         1 LIH      -0.217300
     13 C9           1.7270    -0.1150     0.4770 c3         1 LIH       0.267100
     14 C1          -1.5720     0.6190     3.1600 ca         1 LIH      -0.073000
     15 C4X         -0.3120     0.1880     3.6220 ca         1 LIH      -0.188300
     16 C8X         -0.1590     0.0150     5.0230 ca         1 LIH       0.434600
     17 C10         -2.3030     0.7160     5.4260 ca         1 LIH       0.426200
     18 C3          -2.5700     0.8870     4.0570 ca         1 LIH      -0.266300
     19 N3          -1.1920    -0.6450    -4.9840 nb         1 LIH      -0.881000
     20 N1           0.4680     1.0490    -4.8360 nb         1 LIH      -0.802000
     21 N8           1.5590     1.4880    -2.8930 nb         1 LIH      -0.669000
     22 N5          -1.1590     0.2930     5.8940 nb         1 LIH      -0.668000
     23 N10          0.6290     0.0880     1.3950 nu         1 LIH      -0.759600
     24 N4          -1.9140    -1.8630    -3.2390 nv         1 LIH      -0.958500
     25 N2          -0.5380     0.5330    -6.8190 nv         1 LIH      -0.949500
     26 H71          2.5430     1.8290    -1.1430 h4         1 LIH       0.019100
     27 H5A1        -1.1940    -1.7030    -0.4490 hc         1 LIH       0.055700
     28 H5A2        -0.2740    -2.7510    -1.5400 hc         1 LIH       0.055700
     29 H5A3         0.4260    -2.1860    -0.0400 hc         1 LIH       0.055700
     30 H6'1         2.8110    -0.8070     2.6700 ha         1 LIH       0.133000
     31 H7'1         3.0170    -1.1530     5.0710 ha         1 LIH       0.131000
     32 H8'1         1.1600    -0.6050     6.6130 ha         1 LIH       0.151000
     33 H91          2.1080    -1.1330     0.5990 h1         1 LIH       0.046200
     34 H92          2.5710     0.5530     0.6970 h1         1 LIH       0.046200
     35 H4'1        -1.7720     0.7280     2.1020 ha         1 LIH       0.129000
     36 H2'1        -3.0780     0.9320     6.1550 h4         1 LIH       0.018100
     37 H3'1        -3.5460     1.2170     3.7290 ha         1 LIH       0.140000
     38 H101         0.0070     0.8320     1.1230 hn         1 LIH       0.417800
     39 H41         -2.6540    -2.1590    -3.8560 hn         1 LIH       0.440800
     40 H42         -2.0780    -1.9920    -2.2590 hn         1 LIH       0.440800
     41 H21         -1.3120     0.1230    -7.3120 hn         1 LIH       0.444800
     42 H22         -0.0960     1.3360    -7.2310 hn         1 LIH       0.444800
@<TRIPOS>BOND
     1     1     2 ar  
     2     1     4 ar  
     3     1     5 ar  
     4     2    19 ar  
     5     2    24 1   
     6     3    19 ar  
     7     3    20 ar  
     8     3    25 1   
     9     4    20 ar  
    10     4    21 ar  
    11     5     6 ar  
    12     5     8 1   
    13     6     7 ar  
    14     6    13 1   
    15     7    21 ar  
    16     7    26 1   
    17     8    27 1   
    18     8    28 1   
    19     8    29 1   
    20     9    10 ar  
    21     9    15 ar  
    22     9    23 1   
    23    10    11 ar  
    24    10    30 1   
    25    11    12 ar  
    26    11    31 1   
    27    12    16 ar  
    28    12    32 1   
    29    13    23 1   
    30    13    33 1   
    31    13    34 1   
    32    14    15 ar  
    33    14    18 ar  
    34    14    35 1   
    35    15    16 ar  
    36    16    22 ar  
    37    17    18 ar  
    38    17    22 ar  
    39    17    36 1   
    40    18    37 1   
    41    23    38 1   
    42    24    39 1   
    43    24    40 1   
    44    25    41 1   
    45    25    42 1   
@<TRIPOS>SUBSTRUCTURE
     1 LIH         1 TEMP              0 ****  ****    0 ROOT
