@<TRIPOS>MOLECULE
LIH
   42    45     1     0     0
SMALL
No Charge or Current Charge


@<TRIPOS>ATOM
      1 C4A         -0.0060    -0.3650    -2.8910 ca         1 LIH      -0.277000
      2 C4          -1.0710    -0.9150    -3.6640 ca         1 LIH       0.449900
      3 C2          -0.5420     0.3970    -5.4120 ca         1 LIH       0.443900
      4 C8A          0.7730     0.6420    -3.5450 ca         1 LIH       0.152000
      5 C5           0.3330    -0.7400    -1.5470 ca         1 LIH       0.059700
      6 C6           1.4280    -0.0720    -0.9360 ca         1 LIH      -0.231300
      7 C7           2.1150     0.9030    -1.6680 ca         1 LIH       0.141900
      8 C5A         -0.4320    -1.8200    -0.7630 c3         1 LIH      -0.070800
      9 C11          0.9760     0.0840     2.8170 ca         1 LIH       0.329000
     10 C12          2.1750    -0.2220     3.4830 ca         1 LIH      -0.208000
     11 C13          2.1920    -0.4040     4.8720 ca         1 LIH      -0.056000
     12 C8           1.0030    -0.2770     5.6030 ca         1 LIH      -0.134000
     13 C9           1.9200    -0.3490     0.4770 c3         1 LIH       0.267100
     14 C1          -1.4600     0.5140     2.9330 ca         1 LIH      -0.055000
     15 C4X         -0.2260     0.2130     3.5560 ca         1 LIH      -0.123000
     16 C8X         -0.2100     0.0290     4.9660 ca         1 LIH       0.304000
     17 C10         -2.5000     0.4300     5.1130 ca         1 LIH       0.360900
     18 C3          -2.6080     0.6230     3.7300 ca         1 LIH      -0.183000
     19 N3          -1.3370    -0.5380    -4.9130 nb         1 LIH      -0.355000
     20 N1           0.4790     1.0030    -4.8110 nb         1 LIH      -0.276000
     21 N8           1.8020     1.2450    -2.9230 nb         1 LIH      -0.143000
     22 N5          -1.3290     0.1390     5.7210 nb         1 LIH      -0.668000
     23 N10          0.9950     0.2650     1.4300 nu         1 LIH      -0.953200
     24 N4          -1.9540    -1.8580    -3.2570 nv         1 LIH      -1.068900
     25 N2          -0.8120     0.7830    -6.6770 nv         1 LIH      -1.059900
     26 H71          2.9590     1.4360    -1.2330 h4         1 LIH       0.019100
     27 H5A1        -1.4720    -1.5180    -0.5940 hc         1 LIH       0.055700
     28 H5A2        -0.4180    -2.7780    -1.2950 hc         1 LIH       0.055700
     29 H5A3        -0.0230    -2.0310     0.2270 hc         1 LIH       0.055700
     30 H6'1         3.1040    -0.3150     2.9300 ha         1 LIH       0.115000
     31 H7'1         3.1240    -0.6400     5.3820 ha         1 LIH       0.113000
     32 H8'1         1.0210    -0.4180     6.6810 ha         1 LIH       0.133000
     33 H91          1.9990    -1.4320     0.6470 h1         1 LIH       0.046200
     34 H92          2.9280     0.0690     0.6120 h1         1 LIH       0.046200
     35 H4'1        -1.5460     0.6600     1.8590 ha         1 LIH       0.111000
     36 H2'1        -3.3760     0.5090     5.7560 h4         1 LIH       0.018100
     37 H3'1        -3.5730     0.8530     3.2880 ha         1 LIH       0.122000
     38 H101         0.1300     0.6150     1.0250 hn         1 LIH       0.473000
     39 H41         -2.7700    -2.0110    -3.8440 hn         1 LIH       0.496000
     40 H42         -2.0770    -2.0130    -2.2650 hn         1 LIH       0.496000
     41 H21         -1.7140     0.5250    -7.0680 hn         1 LIH       0.500000
     42 H22         -0.4030     1.6520    -7.0120 hn         1 LIH       0.500000
@<TRIPOS>BOND
     1     1     2 ar  
     2     1     4 ar  
     3     1     5 ar  
     4     2    19 ar  
     5     2    24 1   
     6     3    19 ar  
     7     3    20 ar  
     8     3    25 1   
     9     4    20 ar  
    10     4    21 ar  
    11     5     6 ar  
    12     5     8 1   
    13     6     7 ar  
    14     6    13 1   
    15     7    21 ar  
    16     7    26 1   
    17     8    27 1   
    18     8    28 1   
    19     8    29 1   
    20     9    10 ar  
    21     9    15 ar  
    22     9    23 1   
    23    10    11 ar  
    24    10    30 1   
    25    11    12 ar  
    26    11    31 1   
    27    12    16 ar  
    28    12    32 1   
    29    13    23 1   
    30    13    33 1   
    31    13    34 1   
    32    14    15 ar  
    33    14    18 ar  
    34    14    35 1   
    35    15    16 ar  
    36    16    22 ar  
    37    17    18 ar  
    38    17    22 ar  
    39    17    36 1   
    40    18    37 1   
    41    23    38 1   
    42    24    39 1   
    43    24    40 1   
    44    25    41 1   
    45    25    42 1   
@<TRIPOS>SUBSTRUCTURE
     1 LIH         1 TEMP              0 ****  ****    0 ROOT
