@<TRIPOS>MOLECULE
LII
   44    46     1     0     0
SMALL
bcc


@<TRIPOS>ATOM
      1 C4A         -2.5540    -0.8250    -0.1380 ca         1 LII      -0.399600
      2 C4          -3.9350    -0.8180     0.2960 ca         1 LII       0.775200
      3 C2          -4.3480     0.9980    -1.0270 ca         1 LII       0.964900
      4 C8A         -2.2630     0.1300    -1.1500 ca         1 LII       0.738300
      5 C5          -1.5110    -1.6490     0.3470 ca         1 LII       0.032700
      6 C6          -0.2670    -1.5490    -0.2650 ca         1 LII      -0.230100
      7 C7          -0.1230    -0.6290    -1.3170 ca         1 LII       0.479200
      8 C5A         -1.6650    -2.5780     1.5160 c3         1 LII      -0.067800
      9 C9           0.8800    -2.3900     0.1080 ce         1 LII      -0.107200
     10 C1           2.5840    -0.5690     0.3520 ca         1 LII      -0.061800
     11 C12          3.7700    -0.1910    -0.3010 ca         1 LII       0.112100
     12 C3           4.2030     1.1240    -0.2250 ca         1 LII      -0.180000
     13 C11          3.4770     2.0740     0.4910 ca         1 LII      -0.171000
     14 C13          2.3080     1.7090     1.1440 ca         1 LII       0.107100
     15 C14          1.8770     0.3850     1.0690 ca         1 LII      -0.113000
     16 C10          2.1340    -1.9680     0.3040 cf         1 LII      -0.083200
     17 C2X          5.6020    -0.8450    -1.6610 c3         1 LII       0.124700
     18 C5X          1.9480     3.8930     1.9910 c3         1 LII       0.125700
     19 N3          -4.7790     0.0980    -0.1290 nb         1 LII      -0.883000
     20 N1          -3.1540     1.0330    -1.5860 nb         1 LII      -0.799000
     21 N8          -1.0520     0.1860    -1.7380 nb         1 LII      -0.670000
     22 N4          -4.4410    -1.7220     1.1470 nv         1 LII      -0.960500
     23 N16         -5.2540     1.9140    -1.4160 nv         1 LII      -0.955500
     24 O2           4.4050    -1.1670    -0.9850 os         1 LII      -0.318900
     25 O5           1.5390     2.5470     1.8750 os         1 LII      -0.315900
     26 H71          0.8320    -0.5760    -1.8330 h4         1 LII       0.027100
     27 H51         -2.1720    -3.5040     1.2330 hc         1 LII       0.050700
     28 H52         -0.6950    -2.8610     1.9170 hc         1 LII       0.050700
     29 H53         -2.2210    -2.1180     2.3310 hc         1 LII       0.050700
     30 H91          0.7010    -3.4580     0.1810 ha         1 LII       0.124000
     31 H3'1         5.1110     1.4440    -0.7180 ha         1 LII       0.134000
     32 H4'1         3.8530     3.0870     0.5230 ha         1 LII       0.135000
     33 H6'1         0.9740     0.0970     1.5930 ha         1 LII       0.152000
     34 H101         2.8930    -2.7260     0.4640 ha         1 LII       0.136000
     35 H2A1         5.4450    -0.0780    -2.4250 h1         1 LII       0.039367
     36 H2A2         6.3820    -0.5030    -0.9750 h1         1 LII       0.039367
     37 H2A3         5.9390    -1.7580    -2.1470 h1         1 LII       0.039367
     38 H5'1         1.9730     4.4000     1.0220 h1         1 LII       0.038700
     39 H5'2         1.2140     4.3880     2.6230 h1         1 LII       0.038700
     40 H5'3         2.9320     3.9850     2.4590 h1         1 LII       0.038700
     41 H41         -3.9930    -2.5990     1.3330 hn         1 LII       0.437800
     42 H42         -5.4360    -1.6930     1.3010 hn         1 LII       0.437800
     43 H161        -4.9530     2.7020    -1.9620 hn         1 LII       0.442800
     44 H162        -6.1140     2.0010    -0.9050 hn         1 LII       0.442800
@<TRIPOS>BOND
     1     1     2 ar  
     2     1     4 ar  
     3     1     5 ar  
     4     2    19 ar  
     5     2    22 1   
     6     3    19 ar  
     7     3    20 ar  
     8     3    23 1   
     9     4    20 ar  
    10     4    21 ar  
    11     5     6 ar  
    12     5     8 1   
    13     6     7 ar  
    14     6     9 1   
    15     7    21 ar  
    16     7    26 1   
    17     8    27 1   
    18     8    28 1   
    19     8    29 1   
    20     9    16 2   
    21     9    30 1   
    22    10    11 ar  
    23    10    15 ar  
    24    10    16 1   
    25    11    12 ar  
    26    11    24 1   
    27    12    13 ar  
    28    12    31 1   
    29    13    14 ar  
    30    13    32 1   
    31    14    15 ar  
    32    14    25 1   
    33    15    33 1   
    34    16    34 1   
    35    17    24 1   
    36    17    35 1   
    37    17    36 1   
    38    17    37 1   
    39    18    25 1   
    40    18    38 1   
    41    18    39 1   
    42    18    40 1   
    43    22    41 1   
    44    22    42 1   
    45    23    43 1   
    46    23    44 1   
@<TRIPOS>SUBSTRUCTURE
     1 LII         1 TEMP              0 ****  ****    0 ROOT
