@<TRIPOS>MOLECULE
LII
   44    46     1     0     0
SMALL
No Charge or Current Charge


@<TRIPOS>ATOM
      1 C4A         -2.7510    -0.7700    -0.1100 ca         1 LII      -0.269000
      2 C4          -4.0570    -0.8580     0.4520 ca         1 LII       0.446900
      3 C2          -4.7490     0.8950    -0.7750 ca         1 LII       0.438900
      4 C8A         -2.5620     0.2610    -1.0840 ca         1 LII       0.147000
      5 C5          -1.6420    -1.6190     0.2230 ca         1 LII       0.032700
      6 C6          -0.4250    -1.4110    -0.4710 ca         1 LII      -0.164800
      7 C7          -0.3550    -0.3820    -1.4190 ca         1 LII       0.150900
      8 C5A         -1.6980    -2.6990     1.3140 c3         1 LII      -0.067800
      9 C9           0.7870    -2.2550    -0.2570 ce         1 LII      -0.157200
     10 C1           2.6560    -0.5190     0.1420 ca         1 LII      -0.061800
     11 C12          4.0010    -0.2550    -0.2120 ca         1 LII       0.112100
     12 C3           4.5380     1.0390    -0.0150 ca         1 LII      -0.162000
     13 C11          3.7480     2.0610     0.5380 ca         1 LII      -0.153000
     14 C13          2.4140     1.7980     0.9080 ca         1 LII       0.107100
     15 C14          1.8820     0.5140     0.7130 ca         1 LII      -0.095000
     16 C10          2.0800    -1.8700    -0.0520 cf         1 LII      -0.133200
     17 C2X          6.1270    -1.1010    -1.1600 c3         1 LII       0.147900
     18 C5X          2.0410     4.1040     1.7090 c3         1 LII       0.148900
     19 N3          -5.0480    -0.0310     0.1240 nb         1 LII      -0.357000
     20 N1          -3.5840     1.0850    -1.3930 nb         1 LII      -0.273000
     21 N8          -1.3810     0.4280    -1.7060 nb         1 LII      -0.144000
     22 N4          -4.4840    -1.7890     1.3370 nv         1 LII      -1.070900
     23 N16         -5.7510     1.7380    -1.1060 nv         1 LII      -1.065900
     24 O2           4.7560    -1.2770    -0.7620 os         1 LII      -0.342100
     25 O5           1.5940     2.7570     1.4690 os         1 LII      -0.339100
     26 H71          0.5640    -0.1980    -1.9730 h4         1 LII       0.027100
     27 H51         -2.3150    -3.5490     1.0000 hc         1 LII       0.050700
     28 H52         -0.7160    -3.1030     1.5760 hc         1 LII       0.050700
     29 H53         -2.0940    -2.2960     2.2530 hc         1 LII       0.050700
     30 H91          0.5960    -3.3280    -0.3290 ha         1 LII       0.174000
     31 H3'1         5.5640     1.2700    -0.2850 ha         1 LII       0.116000
     32 H4'1         4.1900     3.0440     0.6770 ha         1 LII       0.117000
     33 H6'1         0.8610     0.3230     1.0290 ha         1 LII       0.134000
     34 H101         2.8140    -2.6750     0.0200 ha         1 LII       0.186000
     35 H2A1         6.2110    -0.3300    -1.9370 h1         1 LII       0.039367
     36 H2A2         6.7480    -0.8090    -0.3030 h1         1 LII       0.039367
     37 H2A3         6.5280    -2.0370    -1.5670 h1         1 LII       0.039367
     38 H5'1         2.3390     4.5880     0.7710 h1         1 LII       0.038700
     39 H5'2         1.2340     4.6970     2.1560 h1         1 LII       0.038700
     40 H5'3         2.8940     4.1150     2.3990 h1         1 LII       0.038700
     41 H41         -3.9510    -2.6450     1.4220 hn         1 LII       0.493000
     42 H42         -5.4860    -1.8630     1.4920 hn         1 LII       0.493000
     43 H161        -5.5090     2.5960    -1.5960 hn         1 LII       0.498000
     44 H162        -6.5630     1.7770    -0.4960 hn         1 LII       0.498000
@<TRIPOS>BOND
     1     1     2 ar  
     2     1     4 ar  
     3     1     5 ar  
     4     2    19 ar  
     5     2    22 1   
     6     3    19 ar  
     7     3    20 ar  
     8     3    23 1   
     9     4    20 ar  
    10     4    21 ar  
    11     5     6 ar  
    12     5     8 1   
    13     6     7 ar  
    14     6     9 1   
    15     7    21 ar  
    16     7    26 1   
    17     8    27 1   
    18     8    28 1   
    19     8    29 1   
    20     9    16 2   
    21     9    30 1   
    22    10    11 ar  
    23    10    15 ar  
    24    10    16 1   
    25    11    12 ar  
    26    11    24 1   
    27    12    13 ar  
    28    12    31 1   
    29    13    14 ar  
    30    13    32 1   
    31    14    15 ar  
    32    14    25 1   
    33    15    33 1   
    34    16    34 1   
    35    17    24 1   
    36    17    35 1   
    37    17    36 1   
    38    17    37 1   
    39    18    25 1   
    40    18    38 1   
    41    18    39 1   
    42    18    40 1   
    43    22    41 1   
    44    22    42 1   
    45    23    43 1   
    46    23    44 1   
@<TRIPOS>SUBSTRUCTURE
     1 LII         1 TEMP              0 ****  ****    0 ROOT
