@<TRIPOS>MOLECULE
LIJ
   96    98     1     0     0
SMALL
bcc


@<TRIPOS>ATOM
      1 C4          -0.0810     5.7960    -1.0420 c3         1 LIJ      -0.087600
      2 C5          -1.3370     5.0320    -0.6490 c3         1 LIJ      -0.082900
      3 C6          -2.0340     4.4660    -1.8810 c3         1 LIJ      -0.061900
      4 C7          -3.4380     3.8750    -1.7280 c3         1 LIJ      -0.139900
      5 C10         -1.8060     0.5670     0.2670 c3         1 LIJ       0.072700
      6 N12          0.5240     0.2540    -0.2860 ns         1 LIJ      -0.559900
      7 C13          1.7050    -0.3420    -0.8730 c3         1 LIJ       0.082700
      8 C15          0.8050     0.4280    -3.1160 ca         1 LIJ      -0.078300
      9 C17         -1.0500    -0.5740    -4.3010 ca         1 LIJ      -0.131000
     10 C20          0.3690     1.6780    -3.5460 ca         1 LIJ      -0.123500
     11 C21          2.8680    -0.2490     0.1250 c3         1 LIJ       0.124100
     12 C22          4.1400    -0.8920    -0.4070 c3         1 LIJ       0.129800
     13 C24          6.3740    -1.5900     0.1710 c3         1 LIJ       0.205100
     14 C26          8.7220    -1.4620     1.0350 ca         1 LIJ      -0.163000
     15 C28          9.2890    -2.0190     3.3110 ca         1 LIJ      -0.212000
     16 C1          -5.9690     3.1000    -4.6150 c3         1 LIJ      -0.087600
     17 C2          -5.4920     3.5830    -3.2530 c3         1 LIJ      -0.082900
     18 C3          -3.9940     3.3780    -3.0710 c3         1 LIJ      -0.061900
     19 S8          -3.5420     2.5660    -0.4790 s6         1 LIJ       0.972000
     20 O8B         -4.8310     1.8820    -0.6070 o          1 LIJ      -0.577800
     21 O8A         -3.2090     3.1230     0.8330 o          1 LIJ      -0.577800
     22 C9          -2.2480     1.3860    -0.9400 c3         1 LIJ      -0.197600
     23 C11         -0.6640    -0.3600    -0.1870 c          1 LIJ       0.661100
     24 O11         -0.8740    -1.5270    -0.4590 o          1 LIJ      -0.597100
     25 C14          2.0190     0.2990    -2.2360 c3         1 LIJ      -0.050100
     26 C16          0.0850    -0.6970    -3.5150 ca         1 LIJ      -0.123500
     27 C18         -1.4820     0.6810    -4.7170 ca         1 LIJ      -0.134000
     28 C19         -0.7620     1.8060    -4.3440 ca         1 LIJ      -0.131000
     29 O21          3.0850     1.0840     0.5430 oh         1 LIJ      -0.591800
     30 N23          5.1380    -0.9970     0.6370 n7         1 LIJ      -0.801200
     31 C25          7.3840    -1.7210     1.2820 ca         1 LIJ      -0.058300
     32 C27          9.6820    -1.6100     2.0400 ca         1 LIJ       0.137100
     33 O27         10.9520    -1.3290     1.6890 os         1 LIJ      -0.321900
     34 C29          7.9420    -2.2730     3.5530 ca         1 LIJ      -0.095000
     35 C30          6.9920    -2.1280     2.5580 ca         1 LIJ      -0.141000
     36 C31         11.9590    -1.4180     2.6770 c3         1 LIJ       0.126700
     37 N40         -2.9100    -0.1780     0.7940 ns         1 LIJ      -0.547900
     38 C41         -2.7460    -0.8730     1.9440 c          1 LIJ       0.762100
     39 O42         -1.7880    -0.7580     2.6770 o          1 LIJ      -0.586000
     40 O43         -3.7860    -1.6720     2.1730 os         1 LIJ      -0.422900
     41 C44         -3.7380    -2.4860     3.3530 c3         1 LIJ       0.208700
     42 C45         -4.9030    -3.4260     3.2820 ca         1 LIJ      -0.100300
     43 C46         -6.0270    -3.2280     4.0750 ca         1 LIJ      -0.101500
     44 C47         -7.1100    -4.0960     3.9950 ca         1 LIJ      -0.134500
     45 C48         -7.0750    -5.1670     3.1140 ca         1 LIJ      -0.117000
     46 C49         -5.9550    -5.3710     2.3160 ca         1 LIJ      -0.134500
     47 C50         -4.8750    -4.5050     2.4020 ca         1 LIJ      -0.101500
     48 H41          0.4350     6.1860    -0.1650 hc         1 LIJ       0.034367
     49 H42          0.6210     5.1540    -1.5800 hc         1 LIJ       0.034367
     50 H43         -0.3180     6.6400    -1.6930 hc         1 LIJ       0.034367
     51 H51         -1.0690     4.2370     0.0490 hc         1 LIJ       0.054950
     52 H52         -2.0230     5.6910    -0.1100 hc         1 LIJ       0.054950
     53 H61         -2.1580     5.2750    -2.6070 hc         1 LIJ       0.046950
     54 H62         -1.3790     3.7430    -2.3770 hc         1 LIJ       0.046950
     55 H7          -4.1010     4.6400    -1.3040 h1         1 LIJ       0.108700
     56 H10         -1.4250     1.2440     1.0350 h1         1 LIJ       0.106700
     57 HN12         0.6070     1.2040     0.0420 hn         1 LIJ       0.324500
     58 H13          1.4870    -1.4000    -1.0230 h1         1 LIJ       0.090700
     59 H17         -1.5990    -1.4600    -4.5940 ha         1 LIJ       0.133500
     60 H20          0.9240     2.5650    -3.2600 ha         1 LIJ       0.133000
     61 H21          2.5630    -0.7930     1.0240 h1         1 LIJ       0.109700
     62 H221         3.9020    -1.8980    -0.7670 h1         1 LIJ       0.033700
     63 H222         4.5030    -0.3290    -1.2840 h1         1 LIJ       0.033700
     64 H241         6.1440    -2.5880    -0.2170 h1         1 LIJ       0.037200
     65 H242         6.8250    -1.0390    -0.6680 h1         1 LIJ       0.037200
     66 H28         10.0030    -2.1380     4.1150 ha         1 LIJ       0.134000
     67 H11         -5.7900     2.0300    -4.7380 hc         1 LIJ       0.034367
     68 H12         -7.0380     3.2710    -4.7430 hc         1 LIJ       0.034367
     69 H13A        -5.4510     3.6160    -5.4250 hc         1 LIJ       0.034367
     70 H21A        -6.0390     3.0660    -2.4650 hc         1 LIJ       0.054950
     71 H22         -5.7170     4.6480    -3.1380 hc         1 LIJ       0.054950
     72 H31         -3.4680     3.9230    -3.8610 hc         1 LIJ       0.046950
     73 H32         -3.7340     2.3270    -3.2370 hc         1 LIJ       0.046950
     74 H91         -2.6480     0.7570    -1.7370 h1         1 LIJ       0.111700
     75 H92         -1.4020     1.9350    -1.3520 h1         1 LIJ       0.111700
     76 H141         2.4580     1.2910    -2.0990 hc         1 LIJ       0.049700
     77 H142         2.7770    -0.3090    -2.7370 hc         1 LIJ       0.049700
     78 H16          0.4100    -1.6830    -3.2060 ha         1 LIJ       0.133000
     79 H18         -2.3660     0.7770    -5.3330 ha         1 LIJ       0.133000
     80 H19         -1.0820     2.7880    -4.6700 ha         1 LIJ       0.133500
     81 HO21         3.5140     1.5710    -0.1690 ho         1 LIJ       0.394000
     82 HN23         5.3350    -0.0720     1.0000 hn         1 LIJ       0.367800
     83 H29          7.6400    -2.5890     4.5430 ha         1 LIJ       0.130000
     84 H30          5.9480    -2.3210     2.7670 ha         1 LIJ       0.151000
     85 H311        12.8930    -1.1440     2.1930 h1         1 LIJ       0.040033
     86 H312        11.7770    -0.7320     3.5080 h1         1 LIJ       0.040033
     87 H313        12.0560    -2.4320     3.0740 h1         1 LIJ       0.040033
     88 HN40        -3.6290    -0.4850     0.1550 hn         1 LIJ       0.340500
     89 H441        -2.7970    -3.0390     3.3850 h1         1 LIJ       0.057700
     90 H442        -3.7950    -1.8580     4.2440 h1         1 LIJ       0.057700
     91 H46         -6.0590    -2.3920     4.7630 ha         1 LIJ       0.134500
     92 H47         -7.9780    -3.9330     4.6200 ha         1 LIJ       0.131500
     93 H48         -7.9180    -5.8430     3.0480 ha         1 LIJ       0.129000
     94 H49         -5.9230    -6.2070     1.6310 ha         1 LIJ       0.131500
     95 H50         -4.0020    -4.6730     1.7820 ha         1 LIJ       0.134500
     96 H26          9.0390    -1.1320     0.0520 ha         1 LIJ       0.139000
@<TRIPOS>BOND
     1     1     2 1   
     2     1    48 1   
     3     1    49 1   
     4     1    50 1   
     5     2     3 1   
     6     2    51 1   
     7     2    52 1   
     8     3     4 1   
     9     3    53 1   
    10     3    54 1   
    11     4    18 1   
    12     4    19 1   
    13     4    55 1   
    14     5    22 1   
    15     5    23 1   
    16     5    37 1   
    17     5    56 1   
    18     6     7 1   
    19     6    23 1   
    20     6    57 1   
    21     7    11 1   
    22     7    25 1   
    23     7    58 1   
    24     8    10 ar  
    25     8    25 1   
    26     8    26 ar  
    27     9    26 ar  
    28     9    27 ar  
    29     9    59 1   
    30    10    28 ar  
    31    10    60 1   
    32    11    12 1   
    33    11    29 1   
    34    11    61 1   
    35    12    30 1   
    36    12    62 1   
    37    12    63 1   
    38    13    30 1   
    39    13    31 1   
    40    13    64 1   
    41    13    65 1   
    42    14    31 ar  
    43    14    32 ar  
    44    14    96 1   
    45    15    32 ar  
    46    15    34 ar  
    47    15    66 1   
    48    16    17 1   
    49    16    67 1   
    50    16    68 1   
    51    16    69 1   
    52    17    18 1   
    53    17    70 1   
    54    17    71 1   
    55    18    72 1   
    56    18    73 1   
    57    19    20 2   
    58    19    21 2   
    59    19    22 1   
    60    22    74 1   
    61    22    75 1   
    62    23    24 2   
    63    25    76 1   
    64    25    77 1   
    65    26    78 1   
    66    27    28 ar  
    67    27    79 1   
    68    28    80 1   
    69    29    81 1   
    70    30    82 1   
    71    31    35 ar  
    72    32    33 1   
    73    33    36 1   
    74    34    35 ar  
    75    34    83 1   
    76    35    84 1   
    77    36    85 1   
    78    36    86 1   
    79    36    87 1   
    80    37    38 1   
    81    37    88 1   
    82    38    39 2   
    83    38    40 1   
    84    40    41 1   
    85    41    42 1   
    86    41    89 1   
    87    41    90 1   
    88    42    43 ar  
    89    42    47 ar  
    90    43    44 ar  
    91    43    91 1   
    92    44    45 ar  
    93    44    92 1   
    94    45    46 ar  
    95    45    93 1   
    96    46    47 ar  
    97    46    94 1   
    98    47    95 1   
@<TRIPOS>SUBSTRUCTURE
     1 LIJ         1 TEMP              0 ****  ****    0 ROOT
