@<TRIPOS>MOLECULE
LIJ
   96    98     1     0     0
SMALL
No Charge or Current Charge


@<TRIPOS>ATOM
      1 C4          -1.6030     6.8120    -1.7990 c3         1 LIJ      -0.087600
      2 C5          -2.7130     5.8220    -1.3960 c3         1 LIJ      -0.082900
      3 C6          -2.6040     4.4690    -2.1400 c3         1 LIJ      -0.061900
      4 C7          -3.7130     3.4300    -1.7760 c3         1 LIJ      -0.250700
      5 C10         -1.4360     0.4260     0.3400 c3         1 LIJ       0.072700
      6 N12          0.8460     0.4820    -0.6130 ns         1 LIJ      -0.492900
      7 C13          2.0650     0.0120    -1.2860 c3         1 LIJ       0.082700
      8 C15          1.4180     1.6600    -3.1710 ca         1 LIJ      -0.078300
      9 C17         -0.5210     1.3620    -4.6300 ca         1 LIJ      -0.113000
     10 C20          1.2660     3.0570    -3.2810 ca         1 LIJ      -0.105500
     11 C21          3.1450    -0.4530    -0.2580 c3         1 LIJ       0.147300
     12 C22          4.4060    -1.0750    -0.9280 c3         1 LIJ       0.129800
     13 C24          6.6340    -2.0860    -0.4350 c3         1 LIJ       0.205100
     14 C26          8.4710    -1.7130     1.2870 ca         1 LIJ      -0.145000
     15 C28          9.1740    -3.4850     2.8020 ca         1 LIJ      -0.194000
     16 C1          -5.6600     0.8990    -4.1800 c3         1 LIJ      -0.087600
     17 C2          -5.2750     1.5950    -2.8600 c3         1 LIJ      -0.082900
     18 C3          -4.0560     2.5380    -3.0140 c3         1 LIJ      -0.061900
     19 S8          -3.3010     2.4660    -0.2580 s6         1 LIJ       1.052000
     20 O8B         -4.5210     1.7920     0.2020 o          1 LIJ      -0.507000
     21 O8A         -2.5820     3.3430     0.6730 o          1 LIJ      -0.507000
     22 C9          -2.1360     1.2020    -0.8110 c3         1 LIJ      -0.308400
     23 C11         -0.1790    -0.3330    -0.1820 c          1 LIJ       0.594100
     24 O11         -0.0970    -1.5550    -0.2340 o          1 LIJ      -0.597100
     25 C14          2.5450     1.0760    -2.3150 c3         1 LIJ      -0.050100
     26 C16          0.5200     0.8160    -3.8580 ca         1 LIJ      -0.105500
     27 C18         -0.6660     2.7550    -4.7320 ca         1 LIJ      -0.116000
     28 C19          0.2310     3.6020    -4.0600 ca         1 LIJ      -0.113000
     29 O21          3.5290     0.6340     0.6180 oh         1 LIJ      -0.654000
     30 N23          5.3370    -1.6190     0.0840 n7         1 LIJ      -0.856400
     31 C25          7.5230    -2.5760     0.7010 ca         1 LIJ      -0.058300
     32 C27          9.2970    -2.1590     2.3330 ca         1 LIJ       0.137100
     33 O27         10.2050    -1.2650     2.8630 os         1 LIJ      -0.345100
     34 C29          8.2290    -4.3490     2.2220 ca         1 LIJ      -0.077000
     35 C30          7.4070    -3.8960     1.1760 ca         1 LIJ      -0.123000
     36 C31         11.0960    -1.6210     3.9360 c3         1 LIJ       0.149900
     37 N40         -2.3740    -0.5220     0.9730 ns         1 LIJ      -0.480900
     38 C41         -2.9900    -0.3400     2.1780 c          1 LIJ       0.646100
     39 O42         -2.8350     0.6260     2.9080 o          1 LIJ      -0.537000
     40 O43         -3.7600    -1.4270     2.4460 os         1 LIJ      -0.446100
     41 C44         -4.4910    -1.4320     3.6820 c3         1 LIJ       0.231900
     42 C45         -5.2860    -2.7290     3.7640 ca         1 LIJ      -0.100300
     43 C46         -6.5760    -2.8070     3.2020 ca         1 LIJ      -0.083500
     44 C47         -7.3100    -4.0040     3.2780 ca         1 LIJ      -0.116500
     45 C48         -6.7590    -5.1290     3.9140 ca         1 LIJ      -0.099000
     46 C49         -5.4730    -5.0570     4.4740 ca         1 LIJ      -0.116500
     47 C50         -4.7370    -3.8610     4.3990 ca         1 LIJ      -0.083500
     48 H41         -1.7190     7.7580    -1.2560 hc         1 LIJ       0.034367
     49 H42         -0.6140     6.4020    -1.5660 hc         1 LIJ       0.034367
     50 H43         -1.6450     7.0270    -2.8740 hc         1 LIJ       0.034367
     51 H51         -2.6700     5.6730    -0.3120 hc         1 LIJ       0.054950
     52 H52         -3.6890     6.2750    -1.6130 hc         1 LIJ       0.054950
     53 H61         -2.6510     4.6910    -3.2130 hc         1 LIJ       0.046950
     54 H62         -1.6120     4.0330    -1.9670 hc         1 LIJ       0.046950
     55 H7          -4.6200     3.9820    -1.5030 h1         1 LIJ       0.108700
     56 H10         -1.0680     1.1350     1.0950 h1         1 LIJ       0.106700
     57 HN12         0.7070     1.4810    -0.5250 hn         1 LIJ       0.324500
     58 H13          1.7870    -0.8790    -1.8670 h1         1 LIJ       0.090700
     59 H17         -1.2130     0.7040    -5.1520 ha         1 LIJ       0.115500
     60 H20          1.9500     3.7260    -2.7620 ha         1 LIJ       0.115000
     61 H21          2.6840    -1.2530     0.3380 h1         1 LIJ       0.109700
     62 H221         4.0910    -1.8710    -1.6170 h1         1 LIJ       0.033700
     63 H222         4.9100    -0.3030    -1.5260 h1         1 LIJ       0.033700
     64 H241         6.4860    -2.9040    -1.1540 h1         1 LIJ       0.037200
     65 H242         7.1480    -1.2740    -0.9680 h1         1 LIJ       0.037200
     66 H28          9.7970    -3.8600     3.6090 ha         1 LIJ       0.116000
     67 H11         -4.8250     0.2970    -4.5580 hc         1 LIJ       0.034367
     68 H12         -6.5190     0.2350    -4.0250 hc         1 LIJ       0.034367
     69 H13A        -5.9300     1.6370    -4.9450 hc         1 LIJ       0.034367
     70 H21A        -5.0620     0.8170    -2.1190 hc         1 LIJ       0.054950
     71 H22         -6.1360     2.1670    -2.4930 hc         1 LIJ       0.054950
     72 H31         -4.2680     3.2010    -3.8630 hc         1 LIJ       0.046950
     73 H32         -3.1780     1.9500    -3.3080 hc         1 LIJ       0.046950
     74 H91         -2.6890     0.5160    -1.4600 h1         1 LIJ       0.111700
     75 H92         -1.3980     1.7400    -1.4150 h1         1 LIJ       0.111700
     76 H141         3.0550     1.8850    -1.7790 hc         1 LIJ       0.049700
     77 H142         3.2980     0.6260    -2.9730 hc         1 LIJ       0.049700
     78 H16          0.6230    -0.2640    -3.7950 ha         1 LIJ       0.115000
     79 H18         -1.4700     3.1770    -5.3300 ha         1 LIJ       0.115000
     80 H19          0.1200     4.6820    -4.1380 ha         1 LIJ       0.115500
     81 HO21         3.9510     1.3220     0.0610 ho         1 LIJ       0.433000
     82 HN23         5.5190    -0.8750     0.7700 hn         1 LIJ       0.423000
     83 H29          8.1320    -5.3710     2.5840 ha         1 LIJ       0.112000
     84 H30          6.6760    -4.5700     0.7350 ha         1 LIJ       0.133000
     85 H311        11.7300    -0.7660     4.2020 h1         1 LIJ       0.040033
     86 H312        10.5310    -1.9170     4.8290 h1         1 LIJ       0.040033
     87 H313        11.7500    -2.4510     3.6400 h1         1 LIJ       0.040033
     88 HN40        -2.5550    -1.4080     0.5170 hn         1 LIJ       0.340500
     89 H441        -3.8070    -1.3640     4.5390 h1         1 LIJ       0.057700
     90 H442        -5.1790    -0.5770     3.7310 h1         1 LIJ       0.057700
     91 H46         -7.0080    -1.9420     2.7050 ha         1 LIJ       0.116500
     92 H47         -8.3050    -4.0590     2.8420 ha         1 LIJ       0.113500
     93 H48         -7.3280    -6.0550     3.9730 ha         1 LIJ       0.111000
     94 H49         -5.0440    -5.9280     4.9660 ha         1 LIJ       0.113500
     95 H50         -3.7400    -3.8150     4.8330 ha         1 LIJ       0.116500
     96 H26          8.5700    -0.6920     0.9300 ha         1 LIJ       0.121000
@<TRIPOS>BOND
     1     1     2 1   
     2     1    48 1   
     3     1    49 1   
     4     1    50 1   
     5     2     3 1   
     6     2    51 1   
     7     2    52 1   
     8     3     4 1   
     9     3    53 1   
    10     3    54 1   
    11     4    18 1   
    12     4    19 1   
    13     4    55 1   
    14     5    22 1   
    15     5    23 1   
    16     5    37 1   
    17     5    56 1   
    18     6     7 1   
    19     6    23 1   
    20     6    57 1   
    21     7    11 1   
    22     7    25 1   
    23     7    58 1   
    24     8    10 ar  
    25     8    25 1   
    26     8    26 ar  
    27     9    26 ar  
    28     9    27 ar  
    29     9    59 1   
    30    10    28 ar  
    31    10    60 1   
    32    11    12 1   
    33    11    29 1   
    34    11    61 1   
    35    12    30 1   
    36    12    62 1   
    37    12    63 1   
    38    13    30 1   
    39    13    31 1   
    40    13    64 1   
    41    13    65 1   
    42    14    31 ar  
    43    14    32 ar  
    44    14    96 1   
    45    15    32 ar  
    46    15    34 ar  
    47    15    66 1   
    48    16    17 1   
    49    16    67 1   
    50    16    68 1   
    51    16    69 1   
    52    17    18 1   
    53    17    70 1   
    54    17    71 1   
    55    18    72 1   
    56    18    73 1   
    57    19    20 2   
    58    19    21 2   
    59    19    22 1   
    60    22    74 1   
    61    22    75 1   
    62    23    24 2   
    63    25    76 1   
    64    25    77 1   
    65    26    78 1   
    66    27    28 ar  
    67    27    79 1   
    68    28    80 1   
    69    29    81 1   
    70    30    82 1   
    71    31    35 ar  
    72    32    33 1   
    73    33    36 1   
    74    34    35 ar  
    75    34    83 1   
    76    35    84 1   
    77    36    85 1   
    78    36    86 1   
    79    36    87 1   
    80    37    38 1   
    81    37    88 1   
    82    38    39 2   
    83    38    40 1   
    84    40    41 1   
    85    41    42 1   
    86    41    89 1   
    87    41    90 1   
    88    42    43 ar  
    89    42    47 ar  
    90    43    44 ar  
    91    43    91 1   
    92    44    45 ar  
    93    44    92 1   
    94    45    46 ar  
    95    45    93 1   
    96    46    47 ar  
    97    46    94 1   
    98    47    95 1   
@<TRIPOS>SUBSTRUCTURE
     1 LIJ         1 TEMP              0 ****  ****    0 ROOT
