@<TRIPOS>MOLECULE
LIK
   33    32     1     0     0
SMALL
No Charge or Current Charge


@<TRIPOS>ATOM
      1 O1           1.7510     2.1280    -0.3740 o          1 LIK      -0.735000
      2 C21          2.6810     1.4800     0.0820 c          1 LIK       0.721000
      3 O2           3.8360     1.6030    -0.3010 o          1 LIK      -0.735000
      4 C14          2.3700     0.3710     1.1060 c3         1 LIK      -0.194200
      5 C12          2.1470    -0.9830     0.4350 c2         1 LIK      -0.025400
      6 CC1          3.0380    -1.9830     0.5190 c2         1 LIK      -0.392000
      7 C7           0.8350    -1.1290    -0.3290 c3         1 LIK      -0.038200
      8 C1          -0.3840    -1.3710     0.5920 c3         1 LIK      -0.045200
      9 C2          -1.6650    -1.6740    -0.1770 c2         1 LIK      -0.082400
     10 CC3         -2.1560    -2.9170    -0.2980 c2         1 LIK      -0.359000
     11 C3          -2.3460    -0.4610    -0.7980 c3         1 LIK      -0.047200
     12 C4          -3.1390     0.3830     0.2270 c3         1 LIK      -0.068400
     13 C5          -3.8920     1.5680    -0.4180 c3         1 LIK      -0.078400
     14 C6          -4.6810     2.4090     0.6040 c3         1 LIK      -0.085100
     15 H141         1.4600     0.6200     1.6640 hc         1 LIK       0.027700
     16 H142         3.2390     0.2520     1.7640 hc         1 LIK       0.027700
     17 HC11         3.9730    -1.8740     1.0680 ha         1 LIK       0.140000
     18 HC12         2.8630    -2.9470     0.0400 ha         1 LIK       0.140000
     19 H71          0.9060    -1.9820    -1.0150 hc         1 LIK       0.051700
     20 H72          0.6580    -0.2550    -0.9650 hc         1 LIK       0.051700
     21 H11         -0.5270    -0.5120     1.2560 hc         1 LIK       0.044200
     22 H12         -0.1430    -2.2160     1.2480 hc         1 LIK       0.044200
     23 HC31        -1.6560    -3.7760     0.1500 ha         1 LIK       0.151000
     24 HC32        -3.0740    -3.1190    -0.8500 ha         1 LIK       0.151000
     25 H31         -3.0460    -0.7940    -1.5750 hc         1 LIK       0.049700
     26 H32         -1.6170     0.1760    -1.3110 hc         1 LIK       0.049700
     27 H41         -2.4540     0.7710     0.9910 hc         1 LIK       0.037200
     28 H42         -3.8590    -0.2650     0.7410 hc         1 LIK       0.037200
     29 H51         -4.5850     1.1880    -1.1780 hc         1 LIK       0.040700
     30 H52         -3.1740     2.2170    -0.9350 hc         1 LIK       0.040700
     31 H61         -5.1970     3.2350     0.1010 hc         1 LIK       0.025700
     32 H62         -5.4330     1.7940     1.1140 hc         1 LIK       0.025700
     33 H63         -4.0090     2.8330     1.3600 hc         1 LIK       0.025700
@<TRIPOS>BOND
     1     1     2 1   
     2     2     3 1   
     3     2     4 1   
     4     4     5 1   
     5     4    15 1   
     6     4    16 1   
     7     5     6 2   
     8     5     7 1   
     9     6    17 1   
    10     6    18 1   
    11     7     8 1   
    12     7    19 1   
    13     7    20 1   
    14     8     9 1   
    15     8    21 1   
    16     8    22 1   
    17     9    10 2   
    18     9    11 1   
    19    10    23 1   
    20    10    24 1   
    21    11    12 1   
    22    11    25 1   
    23    11    26 1   
    24    12    13 1   
    25    12    27 1   
    26    12    28 1   
    27    13    14 1   
    28    13    29 1   
    29    13    30 1   
    30    14    31 1   
    31    14    32 1   
    32    14    33 1   
@<TRIPOS>SUBSTRUCTURE
     1 LIK         1 TEMP              0 ****  ****    0 ROOT
