@<TRIPOS>MOLECULE
LIK
   33    32     1     0     0
SMALL
bcc


@<TRIPOS>ATOM
      1 O1           1.9290     2.7120     0.5640 o          1 LIK      -0.840300
      2 C21          2.1910     1.5910     0.0830 c          1 LIK       0.931600
      3 O2           2.5150     1.3410    -1.0930 o          1 LIK      -0.840300
      4 C14          2.1430     0.4060     1.0770 c3         1 LIK      -0.194200
      5 C12          2.0890    -0.9480     0.4370 c2         1 LIK      -0.025400
      6 CC1          3.0840    -1.8270     0.5550 c2         1 LIK      -0.292000
      7 C7           0.8360    -1.2920    -0.3210 c3         1 LIK      -0.038200
      8 C1          -0.3800    -1.4900     0.5970 c3         1 LIK      -0.045200
      9 C2          -1.6430    -1.7190    -0.1880 c2         1 LIK      -0.082400
     10 CC3         -2.1710    -2.9350    -0.3200 c2         1 LIK      -0.259000
     11 C3          -2.2790    -0.5090    -0.8150 c3         1 LIK      -0.047200
     12 C4          -3.0840     0.3180     0.1890 c3         1 LIK      -0.068400
     13 C5          -3.6300     1.6060    -0.4150 c3         1 LIK      -0.078400
     14 C6          -4.4640     2.4140     0.5690 c3         1 LIK      -0.085100
     15 H141         1.2890     0.5460     1.7460 hc         1 LIK       0.027700
     16 H142         3.0300     0.4760     1.7170 hc         1 LIK       0.027700
     17 HC11         3.9830    -1.5980     1.1160 ha         1 LIK       0.090000
     18 HC12         3.0380    -2.8040     0.0890 ha         1 LIK       0.090000
     19 H71          0.9870    -2.2080    -0.8970 hc         1 LIK       0.051700
     20 H72          0.6320    -0.4950    -1.0400 hc         1 LIK       0.051700
     21 H11         -0.5010    -0.6130     1.2420 hc         1 LIK       0.044200
     22 H12         -0.1910    -2.3370     1.2600 hc         1 LIK       0.044200
     23 HC31        -1.7310    -3.8020     0.1590 ha         1 LIK       0.101000
     24 HC32        -3.0640    -3.1060    -0.9110 ha         1 LIK       0.101000
     25 H31         -2.9340    -0.8140    -1.6350 hc         1 LIK       0.049700
     26 H32         -1.5070     0.1290    -1.2590 hc         1 LIK       0.049700
     27 H41         -2.4640     0.5650     1.0560 hc         1 LIK       0.037200
     28 H42         -3.9110    -0.2900     0.5690 hc         1 LIK       0.037200
     29 H51         -4.2330     1.3680    -1.2960 hc         1 LIK       0.040700
     30 H52         -2.7950     2.2140    -0.7760 hc         1 LIK       0.040700
     31 H61         -4.8230     3.3410     0.1200 hc         1 LIK       0.025700
     32 H62         -5.3370     1.8500     0.9040 hc         1 LIK       0.025700
     33 H63         -3.8850     2.6790     1.4560 hc         1 LIK       0.025700
@<TRIPOS>BOND
     1     1     2 1   
     2     2     3 1   
     3     2     4 1   
     4     4     5 1   
     5     4    15 1   
     6     4    16 1   
     7     5     6 2   
     8     5     7 1   
     9     6    17 1   
    10     6    18 1   
    11     7     8 1   
    12     7    19 1   
    13     7    20 1   
    14     8     9 1   
    15     8    21 1   
    16     8    22 1   
    17     9    10 2   
    18     9    11 1   
    19    10    23 1   
    20    10    24 1   
    21    11    12 1   
    22    11    25 1   
    23    11    26 1   
    24    12    13 1   
    25    12    27 1   
    26    12    28 1   
    27    13    14 1   
    28    13    29 1   
    29    13    30 1   
    30    14    31 1   
    31    14    32 1   
    32    14    33 1   
@<TRIPOS>SUBSTRUCTURE
     1 LIK         1 TEMP              0 ****  ****    0 ROOT
