@<TRIPOS>MOLECULE
LIL
   85    84     1     0     0
SMALL
abcg2


@<TRIPOS>ATOM
      1 C1E         -6.0440     0.6840     0.7200 c          1 LIL       0.722000
      2 C2E         -5.4520    -0.7100     1.0090 c3         1 LIL      -0.236400
      3 C3E         -3.9790    -0.8150     1.3710 c3         1 LIL       0.218300
      4 C4E         -3.5930    -0.2040     2.7080 c3         1 LIL      -0.078400
      5 C5E         -2.1560    -0.5030     3.1160 c3         1 LIL      -0.073400
      6 C6E         -1.8170    -0.0010     4.5150 c3         1 LIL      -0.075400
      7 C7E         -0.3860    -0.3170     4.9290 c3         1 LIL      -0.074400
      8 C8E         -0.0390     0.1570     6.3350 c3         1 LIL      -0.074400
      9 C9E          1.3890    -0.1820     6.7450 c3         1 LIL      -0.074400
     10 C0S          1.7410     0.2720     8.1560 c3         1 LIL      -0.074400
     11 C1S          3.1670    -0.0810     8.5620 c3         1 LIL      -0.074400
     12 C2S          3.5230     0.3590     9.9760 c3         1 LIL      -0.074400
     13 C3S          4.9460    -0.0060    10.3800 c3         1 LIL      -0.075400
     14 C4S          5.3020     0.4210    11.7990 c3         1 LIL      -0.075400
     15 C5S          6.7250     0.0480    12.1940 c3         1 LIL      -0.088100
     16 O1E         -5.3680     1.6940     0.9860 o          1 LIL      -0.735000
     17 O2E         -3.1560    -0.1900     0.3630 os         1 LIL      -0.422100
     18 C1F         -2.8400    -0.8530    -0.7370 c          1 LIL       0.604100
     19 C2F         -1.9730    -0.0180    -1.6450 c3         1 LIL      -0.143400
     20 C3F         -1.5620    -0.7270    -2.9250 c3         1 LIL      -0.066400
     21 C4F         -0.6930     0.1510    -3.8150 c3         1 LIL      -0.076400
     22 C5F         -0.2780    -0.5450    -5.1050 c3         1 LIL      -0.074400
     23 C6F          0.5890     0.3200    -6.0100 c3         1 LIL      -0.074400
     24 C7F          0.9910    -0.3830    -7.3000 c3         1 LIL      -0.074400
     25 C8F          1.8570     0.4740    -8.2160 c3         1 LIL      -0.074400
     26 C9F          2.2470    -0.2360    -9.5060 c3         1 LIL      -0.074400
     27 C0T          3.1100     0.6130   -10.4300 c3         1 LIL      -0.074400
     28 C1T          3.4920    -0.1030   -11.7200 c3         1 LIL      -0.076400
     29 C2T          4.3530     0.7420   -12.6500 c3         1 LIL      -0.074400
     30 C3T          4.7250     0.0150   -13.9350 c3         1 LIL      -0.088100
     31 O1F         -3.1980    -1.9810    -0.9790 o          1 LIL      -0.527000
     32 O3E         -7.1980     0.6710     0.2420 o          1 LIL      -0.735000
     33 H2E1        -5.6560    -1.3570     0.1510 hc         1 LIL       0.036200
     34 H2E2        -6.0220    -1.1540     1.8330 hc         1 LIL       0.036200
     35 H3E1        -3.7230    -1.8790     1.4100 h1         1 LIL       0.014700
     36 H4E1        -4.2710    -0.6260     3.4570 hc         1 LIL       0.067200
     37 H4E2        -3.7760     0.8710     2.6940 hc         1 LIL       0.067200
     38 H5E1        -1.4630    -0.0570     2.3970 hc         1 LIL       0.031200
     39 H5E2        -1.9850    -1.5850     3.0740 hc         1 LIL       0.031200
     40 H6E1        -2.5110    -0.4450     5.2370 hc         1 LIL       0.037200
     41 H6E2        -1.9810     1.0820     4.5650 hc         1 LIL       0.037200
     42 H7E1         0.3070     0.1360     4.2120 hc         1 LIL       0.033700
     43 H7E2        -0.2240    -1.3990     4.8630 hc         1 LIL       0.033700
     44 H8E1        -0.7370    -0.2910     7.0510 hc         1 LIL       0.036200
     45 H8E2        -0.1900     1.2400     6.4030 hc         1 LIL       0.036200
     46 H9E1         2.0870     0.2720     6.0330 hc         1 LIL       0.035200
     47 H9E2         1.5380    -1.2650     6.6660 hc         1 LIL       0.035200
     48 H0S1         1.0400    -0.1780     8.8670 hc         1 LIL       0.036200
     49 H0S2         1.5990     1.3560     8.2360 hc         1 LIL       0.036200
     50 H1S1         3.8680     0.3730     7.8530 hc         1 LIL       0.035700
     51 H1S2         3.3080    -1.1640     8.4740 hc         1 LIL       0.035700
     52 H2S1         2.8190    -0.0920    10.6840 hc         1 LIL       0.036200
     53 H2S2         3.3880     1.4430    10.0650 hc         1 LIL       0.036200
     54 H3S1         5.6510     0.4510     9.6770 hc         1 LIL       0.036200
     55 H3S2         5.0830    -1.0890    10.2840 hc         1 LIL       0.036200
     56 H4S1         4.5980    -0.0350    12.5010 hc         1 LIL       0.035700
     57 H4S2         5.1670     1.5030    11.8970 hc         1 LIL       0.035700
     58 H5S1         6.9500     0.3530    13.2160 hc         1 LIL       0.029367
     59 H5S2         6.8820    -1.0300    12.1300 hc         1 LIL       0.029367
     60 H5S3         7.4560     0.5260    11.5390 hc         1 LIL       0.029367
     61 H2F1        -2.5130     0.9060    -1.8770 hc         1 LIL       0.069700
     62 H2F2        -1.0890     0.2980    -1.0820 hc         1 LIL       0.069700
     63 H3F1        -1.0200    -1.6450    -2.6820 hc         1 LIL       0.049200
     64 H3F2        -2.4530    -1.0350    -3.4800 hc         1 LIL       0.049200
     65 H4F1        -1.2310     1.0740    -4.0570 hc         1 LIL       0.036200
     66 H4F2         0.2030     0.4600    -3.2640 hc         1 LIL       0.036200
     67 H5F1         0.2600    -1.4680    -4.8610 hc         1 LIL       0.037200
     68 H5F2        -1.1760    -0.8570    -5.6510 hc         1 LIL       0.037200
     69 H6F1         0.0520     1.2440    -6.2520 hc         1 LIL       0.036200
     70 H6F2         1.4900     0.6280    -5.4680 hc         1 LIL       0.036200
     71 H7F1         1.5260    -1.3080    -7.0570 hc         1 LIL       0.036200
     72 H7F2         0.0890    -0.6920    -7.8390 hc         1 LIL       0.036200
     73 H8F1         1.3240     1.4000    -8.4580 hc         1 LIL       0.036700
     74 H8F2         2.7630     0.7790    -7.6810 hc         1 LIL       0.036700
     75 H9F1         2.7790    -1.1630    -9.2630 hc         1 LIL       0.036200
     76 H9F2         1.3390    -0.5420   -10.0380 hc         1 LIL       0.036200
     77 H0T1         2.5790     1.5400   -10.6740 hc         1 LIL       0.036200
     78 H0T2         4.0200     0.9170    -9.9010 hc         1 LIL       0.036200
     79 H1T1         4.0230    -1.0300   -11.4760 hc         1 LIL       0.036200
     80 H1T2         2.5810    -0.4100   -12.2470 hc         1 LIL       0.036200
     81 H2T1         3.8210     1.6670   -12.8930 hc         1 LIL       0.036200
     82 H2T2         5.2630     1.0460   -12.1240 hc         1 LIL       0.036200
     83 H3T1         5.3340     0.6410   -14.5890 hc         1 LIL       0.029700
     84 H3T2         5.2930    -0.8930   -13.7240 hc         1 LIL       0.029700
     85 H3T3         3.8340    -0.2790   -14.4940 hc         1 LIL       0.029700
@<TRIPOS>BOND
     1     1     2 1   
     2     1    16 1   
     3     1    32 1   
     4     2     3 1   
     5     2    33 1   
     6     2    34 1   
     7     3     4 1   
     8     3    17 1   
     9     3    35 1   
    10     4     5 1   
    11     4    36 1   
    12     4    37 1   
    13     5     6 1   
    14     5    38 1   
    15     5    39 1   
    16     6     7 1   
    17     6    40 1   
    18     6    41 1   
    19     7     8 1   
    20     7    42 1   
    21     7    43 1   
    22     8     9 1   
    23     8    44 1   
    24     8    45 1   
    25     9    10 1   
    26     9    46 1   
    27     9    47 1   
    28    10    11 1   
    29    10    48 1   
    30    10    49 1   
    31    11    12 1   
    32    11    50 1   
    33    11    51 1   
    34    12    13 1   
    35    12    52 1   
    36    12    53 1   
    37    13    14 1   
    38    13    54 1   
    39    13    55 1   
    40    14    15 1   
    41    14    56 1   
    42    14    57 1   
    43    15    58 1   
    44    15    59 1   
    45    15    60 1   
    46    17    18 1   
    47    18    19 1   
    48    18    31 2   
    49    19    20 1   
    50    19    61 1   
    51    19    62 1   
    52    20    21 1   
    53    20    63 1   
    54    20    64 1   
    55    21    22 1   
    56    21    65 1   
    57    21    66 1   
    58    22    23 1   
    59    22    67 1   
    60    22    68 1   
    61    23    24 1   
    62    23    69 1   
    63    23    70 1   
    64    24    25 1   
    65    24    71 1   
    66    24    72 1   
    67    25    26 1   
    68    25    73 1   
    69    25    74 1   
    70    26    27 1   
    71    26    75 1   
    72    26    76 1   
    73    27    28 1   
    74    27    77 1   
    75    27    78 1   
    76    28    29 1   
    77    28    79 1   
    78    28    80 1   
    79    29    30 1   
    80    29    81 1   
    81    29    82 1   
    82    30    83 1   
    83    30    84 1   
    84    30    85 1   
@<TRIPOS>SUBSTRUCTURE
     1 LIL         1 TEMP              0 ****  ****    0 ROOT
