@<TRIPOS>MOLECULE
LIL
   85    84     1     0     0
SMALL
No Charge or Current Charge


@<TRIPOS>ATOM
      1 C1E         -7.1930     1.3760     1.4640 c          1 LIL       0.722000
      2 C2E         -6.9810    -0.1370     1.5940 c3         1 LIL      -0.236400
      3 C3E         -5.4810    -0.5230     1.5010 c3         1 LIL       0.218300
      4 C4E         -4.6030     0.0500     2.6420 c3         1 LIL      -0.078400
      5 C5E         -3.1470    -0.4740     2.6260 c3         1 LIL      -0.073400
      6 C6E         -2.2920     0.0810     3.7860 c3         1 LIL      -0.075400
      7 C7E         -0.8380    -0.4410     3.7670 c3         1 LIL      -0.074400
      8 C8E          0.0190     0.1140     4.9250 c3         1 LIL      -0.074400
      9 C9E          1.4720    -0.4090     4.9060 c3         1 LIL      -0.074400
     10 C0S          2.3300     0.1460     6.0640 c3         1 LIL      -0.074400
     11 C1S          3.7830    -0.3770     6.0440 c3         1 LIL      -0.074400
     12 C2S          4.6400     0.1780     7.2030 c3         1 LIL      -0.074400
     13 C3S          6.0930    -0.3460     7.1830 c3         1 LIL      -0.075400
     14 C4S          6.9510     0.2080     8.3410 c3         1 LIL      -0.075400
     15 C5S          8.4010    -0.3140     8.3220 c3         1 LIL      -0.088100
     16 O1E         -7.1760     2.0490     2.4830 o          1 LIL      -0.735000
     17 O2E         -4.9340    -0.0370     0.2620 os         1 LIL      -0.422100
     18 C1F         -5.1890    -0.7160    -0.9010 c          1 LIL       0.604100
     19 C2F         -4.5510    -0.0210    -2.1060 c3         1 LIL      -0.143400
     20 C3F         -3.1360    -0.5810    -2.3860 c3         1 LIL      -0.066400
     21 C4F         -2.4400     0.1050    -3.5820 c3         1 LIL      -0.076400
     22 C5F         -1.0270    -0.4540    -3.8580 c3         1 LIL      -0.074400
     23 C6F         -0.3290     0.2330    -5.0530 c3         1 LIL      -0.074400
     24 C7F          1.0850    -0.3250    -5.3280 c3         1 LIL      -0.074400
     25 C8F          1.7830     0.3620    -6.5220 c3         1 LIL      -0.074400
     26 C9F          3.1970    -0.1950    -6.7970 c3         1 LIL      -0.074400
     27 C0T          3.8950     0.4920    -7.9920 c3         1 LIL      -0.074400
     28 C1T          5.3090    -0.0650    -8.2660 c3         1 LIL      -0.076400
     29 C2T          6.0080     0.6220    -9.4600 c3         1 LIL      -0.074400
     30 C3T          7.4190     0.0670    -9.7350 c3         1 LIL      -0.088100
     31 O1F         -5.8160    -1.7640    -0.9820 o          1 LIL      -0.527000
     32 O3E         -7.4060     1.8380     0.3540 o          1 LIL      -0.735000
     33 H2E1        -7.4860    -0.6600     0.7760 hc         1 LIL       0.036200
     34 H2E2        -7.3050    -0.4770     2.5850 hc         1 LIL       0.036200
     35 H3E1        -5.4020    -1.6170     1.5520 h1         1 LIL       0.014700
     36 H4E1        -5.0620    -0.2080     3.6040 hc         1 LIL       0.067200
     37 H4E2        -4.5890     1.1450     2.5800 hc         1 LIL       0.067200
     38 H5E1        -2.6730    -0.2060     1.6740 hc         1 LIL       0.031200
     39 H5E2        -3.1590    -1.5700     2.6800 hc         1 LIL       0.031200
     40 H6E1        -2.7590    -0.1910     4.7410 hc         1 LIL       0.037200
     41 H6E2        -2.2820     1.1770     3.7340 hc         1 LIL       0.037200
     42 H7E1        -0.3710    -0.1700     2.8120 hc         1 LIL       0.033700
     43 H7E2        -0.8490    -1.5370     3.8190 hc         1 LIL       0.033700
     44 H8E1        -0.4480    -0.1570     5.8810 hc         1 LIL       0.036200
     45 H8E2         0.0290     1.2100     4.8730 hc         1 LIL       0.036200
     46 H9E1         1.9390    -0.1380     3.9500 hc         1 LIL       0.035200
     47 H9E2         1.4610    -1.5040     4.9580 hc         1 LIL       0.035200
     48 H0S1         1.8620    -0.1240     7.0190 hc         1 LIL       0.036200
     49 H0S2         2.3410     1.2420     6.0110 hc         1 LIL       0.036200
     50 H1S1         4.2500    -0.1070     5.0890 hc         1 LIL       0.035700
     51 H1S2         3.7720    -1.4730     6.0970 hc         1 LIL       0.035700
     52 H2S1         4.1730    -0.0920     8.1580 hc         1 LIL       0.036200
     53 H2S2         4.6520     1.2740     7.1500 hc         1 LIL       0.036200
     54 H3S1         6.5610    -0.0760     6.2280 hc         1 LIL       0.036200
     55 H3S2         6.0820    -1.4420     7.2360 hc         1 LIL       0.036200
     56 H4S1         6.4880    -0.0610     9.2990 hc         1 LIL       0.035700
     57 H4S2         6.9670     1.3040     8.2910 hc         1 LIL       0.035700
     58 H5S1         8.9690     0.1060     9.1610 hc         1 LIL       0.029367
     59 H5S2         8.4210    -1.4070     8.4080 hc         1 LIL       0.029367
     60 H5S3         8.9040    -0.0290     7.3900 hc         1 LIL       0.029367
     61 H2F1        -5.1810    -0.1740    -2.9890 hc         1 LIL       0.069700
     62 H2F2        -4.4430     1.0480    -1.8860 hc         1 LIL       0.069700
     63 H3F1        -2.5170    -0.4580    -1.4880 hc         1 LIL       0.049200
     64 H3F2        -3.2080    -1.6590    -2.5790 hc         1 LIL       0.049200
     65 H4F1        -3.0590    -0.0200    -4.4790 hc         1 LIL       0.036200
     66 H4F2        -2.3700     1.1820    -3.3880 hc         1 LIL       0.036200
     67 H5F1        -0.4090    -0.3290    -2.9600 hc         1 LIL       0.037200
     68 H5F2        -1.0970    -1.5310    -4.0530 hc         1 LIL       0.037200
     69 H6F1        -0.9470     0.1080    -5.9510 hc         1 LIL       0.036200
     70 H6F2        -0.2600     1.3100    -4.8580 hc         1 LIL       0.036200
     71 H7F1         1.7020    -0.2000    -4.4300 hc         1 LIL       0.036200
     72 H7F2         1.0150    -1.4020    -5.5230 hc         1 LIL       0.036200
     73 H8F1         1.1650     0.2370    -7.4210 hc         1 LIL       0.036700
     74 H8F2         1.8520     1.4400    -6.3280 hc         1 LIL       0.036700
     75 H9F1         3.8140    -0.0700    -5.8990 hc         1 LIL       0.036200
     76 H9F2         3.1280    -1.2730    -6.9920 hc         1 LIL       0.036200
     77 H0T1         3.2780     0.3670    -8.8900 hc         1 LIL       0.036200
     78 H0T2         3.9640     1.5700    -7.7970 hc         1 LIL       0.036200
     79 H1T1         5.9270     0.0610    -7.3680 hc         1 LIL       0.036200
     80 H1T2         5.2410    -1.1420    -8.4610 hc         1 LIL       0.036200
     81 H2T1         5.3950     0.4970   -10.3610 hc         1 LIL       0.036200
     82 H2T2         6.0800     1.7000    -9.2690 hc         1 LIL       0.036200
     83 H3T1         7.8730     0.5840   -10.5880 hc         1 LIL       0.029700
     84 H3T2         8.0680     0.2100    -8.8620 hc         1 LIL       0.029700
     85 H3T3         7.3770    -1.0040    -9.9650 hc         1 LIL       0.029700
@<TRIPOS>BOND
     1     1     2 1   
     2     1    16 1   
     3     1    32 1   
     4     2     3 1   
     5     2    33 1   
     6     2    34 1   
     7     3     4 1   
     8     3    17 1   
     9     3    35 1   
    10     4     5 1   
    11     4    36 1   
    12     4    37 1   
    13     5     6 1   
    14     5    38 1   
    15     5    39 1   
    16     6     7 1   
    17     6    40 1   
    18     6    41 1   
    19     7     8 1   
    20     7    42 1   
    21     7    43 1   
    22     8     9 1   
    23     8    44 1   
    24     8    45 1   
    25     9    10 1   
    26     9    46 1   
    27     9    47 1   
    28    10    11 1   
    29    10    48 1   
    30    10    49 1   
    31    11    12 1   
    32    11    50 1   
    33    11    51 1   
    34    12    13 1   
    35    12    52 1   
    36    12    53 1   
    37    13    14 1   
    38    13    54 1   
    39    13    55 1   
    40    14    15 1   
    41    14    56 1   
    42    14    57 1   
    43    15    58 1   
    44    15    59 1   
    45    15    60 1   
    46    17    18 1   
    47    18    19 1   
    48    18    31 2   
    49    19    20 1   
    50    19    61 1   
    51    19    62 1   
    52    20    21 1   
    53    20    63 1   
    54    20    64 1   
    55    21    22 1   
    56    21    65 1   
    57    21    66 1   
    58    22    23 1   
    59    22    67 1   
    60    22    68 1   
    61    23    24 1   
    62    23    69 1   
    63    23    70 1   
    64    24    25 1   
    65    24    71 1   
    66    24    72 1   
    67    25    26 1   
    68    25    73 1   
    69    25    74 1   
    70    26    27 1   
    71    26    75 1   
    72    26    76 1   
    73    27    28 1   
    74    27    77 1   
    75    27    78 1   
    76    28    29 1   
    77    28    79 1   
    78    28    80 1   
    79    29    30 1   
    80    29    81 1   
    81    29    82 1   
    82    30    83 1   
    83    30    84 1   
    84    30    85 1   
@<TRIPOS>SUBSTRUCTURE
     1 LIL         1 TEMP              0 ****  ****    0 ROOT
