@<TRIPOS>MOLECULE
LIM
   45    44     1     0     0
SMALL
bcc


@<TRIPOS>ATOM
      1 C1J          0.6880    -1.1360    -6.6870 c          1 LIM       0.944600
      2 C2J          0.7880     0.3470    -6.2350 c3         1 LIM      -0.331400
      3 C3J         -0.0270     0.5780    -4.9950 c          1 LIM       0.621100
      4 C4J          0.6720     0.3190    -3.6870 c3         1 LIM      -0.180400
      5 C5J         -0.2120     0.3610    -2.4530 c3         1 LIM      -0.061400
      6 C6J          0.5850     0.1560    -1.1700 c3         1 LIM      -0.076400
      7 C7J         -0.2760     0.2120     0.0860 c3         1 LIM      -0.074400
      8 C8J          0.5250     0.0300     1.3690 c3         1 LIM      -0.075400
      9 C9J         -0.3280     0.1030     2.6290 c3         1 LIM      -0.074400
     10 C0X          0.4780    -0.0690     3.9100 c3         1 LIM      -0.074400
     11 C1X         -0.3710     0.0170     5.1730 c3         1 LIM      -0.074400
     12 C2X          0.4370    -0.1460     6.4540 c3         1 LIM      -0.074400
     13 C3X         -0.4110    -0.0530     7.7160 c3         1 LIM      -0.075400
     14 C4X          0.3950    -0.2030     9.0000 c3         1 LIM      -0.075400
     15 C5X         -0.4660    -0.1070    10.2520 c3         1 LIM      -0.088100
     16 O1J          0.0070    -1.8890    -5.9670 o          1 LIM      -0.830300
     17 O2J         -1.1770     0.9630    -5.0470 o          1 LIM      -0.581100
     18 O3J          1.3000    -1.4280    -7.7270 o          1 LIM      -0.830300
     19 H2J1         0.4350     0.9930    -7.0430 hc         1 LIM       0.041700
     20 H2J2         1.8400     0.5900    -6.0600 hc         1 LIM       0.041700
     21 H4J1         1.4710     1.0670    -3.6080 hc         1 LIM       0.055700
     22 H4J2         1.1930    -0.6410    -3.7630 hc         1 LIM       0.055700
     23 H5J1        -0.9880    -0.4070    -2.5280 hc         1 LIM       0.046200
     24 H5J2        -0.7350     1.3200    -2.4050 hc         1 LIM       0.046200
     25 H6J1         1.3680     0.9200    -1.1050 hc         1 LIM       0.031700
     26 H6J2         1.1060    -0.8070    -1.2100 hc         1 LIM       0.031700
     27 H7J1        -1.0530    -0.5580     0.0290 hc         1 LIM       0.036200
     28 H7J2        -0.8020     1.1730     0.1200 hc         1 LIM       0.036200
     29 H8J1         1.3080     0.7950     1.4180 hc         1 LIM       0.034700
     30 H8J2         1.0470    -0.9340     1.3390 hc         1 LIM       0.034700
     31 H9J1        -1.1090    -0.6650     2.5840 hc         1 LIM       0.036200
     32 H9J2        -0.8510     1.0650     2.6560 hc         1 LIM       0.036200
     33 H0X1         1.2630     0.6950     3.9500 hc         1 LIM       0.035700
     34 H0X2         0.9970    -1.0340     3.8870 hc         1 LIM       0.035700
     35 H1X1        -1.1530    -0.7490     5.1370 hc         1 LIM       0.036200
     36 H1X2        -0.8920     0.9810     5.1930 hc         1 LIM       0.036200
     37 H2X1         1.2210     0.6190     6.4870 hc         1 LIM       0.036200
     38 H2X2         0.9570    -1.1110     6.4370 hc         1 LIM       0.036200
     39 H3X1        -1.1920    -0.8220     7.6870 hc         1 LIM       0.036200
     40 H3X2        -0.9360     0.9090     7.7300 hc         1 LIM       0.036200
     41 H4X1         1.1730     0.5670     9.0310 hc         1 LIM       0.036200
     42 H4X2         0.9210    -1.1630     8.9880 hc         1 LIM       0.036200
     43 H5X1         0.1300    -0.2030    11.1610 hc         1 LIM       0.029367
     44 H5X2        -0.9860     0.8520    10.2990 hc         1 LIM       0.029367
     45 H5X3        -1.2250    -0.8920    10.2690 hc         1 LIM       0.029367
@<TRIPOS>BOND
     1     1     2 1   
     2     1    16 1   
     3     1    18 1   
     4     2     3 1   
     5     2    19 1   
     6     2    20 1   
     7     3     4 1   
     8     3    17 2   
     9     4     5 1   
    10     4    21 1   
    11     4    22 1   
    12     5     6 1   
    13     5    23 1   
    14     5    24 1   
    15     6     7 1   
    16     6    25 1   
    17     6    26 1   
    18     7     8 1   
    19     7    27 1   
    20     7    28 1   
    21     8     9 1   
    22     8    29 1   
    23     8    30 1   
    24     9    10 1   
    25     9    31 1   
    26     9    32 1   
    27    10    11 1   
    28    10    33 1   
    29    10    34 1   
    30    11    12 1   
    31    11    35 1   
    32    11    36 1   
    33    12    13 1   
    34    12    37 1   
    35    12    38 1   
    36    13    14 1   
    37    13    39 1   
    38    13    40 1   
    39    14    15 1   
    40    14    41 1   
    41    14    42 1   
    42    15    43 1   
    43    15    44 1   
    44    15    45 1   
@<TRIPOS>SUBSTRUCTURE
     1 LIM         1 TEMP              0 ****  ****    0 ROOT
