@<TRIPOS>MOLECULE
LIM
   45    44     1     0     0
SMALL
No Charge or Current Charge


@<TRIPOS>ATOM
      1 C1J         -0.5970    -1.3490    -5.8020 c          1 LIM       0.734000
      2 C2J          0.5940    -0.4600    -6.0660 c3         1 LIM      -0.331400
      3 C3J          0.4060     0.7410    -5.1530 c          1 LIM       0.621100
      4 C4J          1.1690     0.7620    -3.8150 c3         1 LIM      -0.180400
      5 C5J          0.2300     0.5110    -2.6110 c3         1 LIM      -0.061400
      6 C6J          0.9660     0.5570    -1.2540 c3         1 LIM      -0.076400
      7 C7J          0.0310     0.3100    -0.0500 c3         1 LIM      -0.074400
      8 C8J          0.7670     0.3570     1.3060 c3         1 LIM      -0.075400
      9 C9J         -0.1680     0.1100     2.5110 c3         1 LIM      -0.074400
     10 C0X          0.5690     0.1570     3.8670 c3         1 LIM      -0.074400
     11 C1X         -0.3660    -0.0890     5.0720 c3         1 LIM      -0.074400
     12 C2X          0.3710    -0.0420     6.4280 c3         1 LIM      -0.074400
     13 C3X         -0.5640    -0.2880     7.6330 c3         1 LIM      -0.075400
     14 C4X          0.1730    -0.2410     8.9890 c3         1 LIM      -0.075400
     15 C5X         -0.7590    -0.4860    10.1910 c3         1 LIM      -0.088100
     16 O1J         -0.5040    -2.1760    -4.9110 o          1 LIM      -0.725000
     17 O2J         -0.2930     1.6900    -5.4910 o          1 LIM      -0.581100
     18 O3J         -1.6080    -1.1680    -6.4610 o          1 LIM      -0.725000
     19 H2J1         0.5670    -0.0810    -7.0940 hc         1 LIM       0.041700
     20 H2J2         1.5090    -0.9770    -5.7570 hc         1 LIM       0.041700
     21 H4J1         1.6310     1.7480    -3.6930 hc         1 LIM       0.055700
     22 H4J2         1.9440    -0.0120    -3.8070 hc         1 LIM       0.055700
     23 H5J1        -0.2550    -0.4660    -2.7240 hc         1 LIM       0.046200
     24 H5J2        -0.5680     1.2650    -2.6130 hc         1 LIM       0.046200
     25 H6J1         1.4490     1.5350    -1.1400 hc         1 LIM       0.031700
     26 H6J2         1.7630    -0.1970    -1.2520 hc         1 LIM       0.031700
     27 H7J1        -0.4530    -0.6680    -0.1640 hc         1 LIM       0.036200
     28 H7J2        -0.7670     1.0640    -0.0530 hc         1 LIM       0.036200
     29 H8J1         1.2510     1.3350     1.4200 hc         1 LIM       0.034700
     30 H8J2         1.5640    -0.3970     1.3090 hc         1 LIM       0.034700
     31 H9J1        -0.6510    -0.8680     2.3970 hc         1 LIM       0.036200
     32 H9J2        -0.9650     0.8640     2.5080 hc         1 LIM       0.036200
     33 H0X1         1.0530     1.1350     3.9800 hc         1 LIM       0.035700
     34 H0X2         1.3660    -0.5970     3.8700 hc         1 LIM       0.035700
     35 H1X1        -0.8490    -1.0670     4.9580 hc         1 LIM       0.036200
     36 H1X2        -1.1630     0.6650     5.0690 hc         1 LIM       0.036200
     37 H2X1         0.8550     0.9360     6.5410 hc         1 LIM       0.036200
     38 H2X2         1.1680    -0.7960     6.4310 hc         1 LIM       0.036200
     39 H3X1        -1.0470    -1.2660     7.5190 hc         1 LIM       0.036200
     40 H3X2        -1.3610     0.4660     7.6300 hc         1 LIM       0.036200
     41 H4X1         0.6570     0.7370     9.1070 hc         1 LIM       0.036200
     42 H4X2         0.9700    -0.9950     8.9970 hc         1 LIM       0.036200
     43 H5X1        -0.1930    -0.4440    11.1290 hc         1 LIM       0.029367
     44 H5X2        -1.5480     0.2750    10.2320 hc         1 LIM       0.029367
     45 H5X3        -1.2320    -1.4730    10.1200 hc         1 LIM       0.029367
@<TRIPOS>BOND
     1     1     2 1   
     2     1    16 1   
     3     1    18 1   
     4     2     3 1   
     5     2    19 1   
     6     2    20 1   
     7     3     4 1   
     8     3    17 2   
     9     4     5 1   
    10     4    21 1   
    11     4    22 1   
    12     5     6 1   
    13     5    23 1   
    14     5    24 1   
    15     6     7 1   
    16     6    25 1   
    17     6    26 1   
    18     7     8 1   
    19     7    27 1   
    20     7    28 1   
    21     8     9 1   
    22     8    29 1   
    23     8    30 1   
    24     9    10 1   
    25     9    31 1   
    26     9    32 1   
    27    10    11 1   
    28    10    33 1   
    29    10    34 1   
    30    11    12 1   
    31    11    35 1   
    32    11    36 1   
    33    12    13 1   
    34    12    37 1   
    35    12    38 1   
    36    13    14 1   
    37    13    39 1   
    38    13    40 1   
    39    14    15 1   
    40    14    41 1   
    41    14    42 1   
    42    15    43 1   
    43    15    44 1   
    44    15    45 1   
@<TRIPOS>SUBSTRUCTURE
     1 LIM         1 TEMP              0 ****  ****    0 ROOT
