@<TRIPOS>MOLECULE
LIN
   12    11     1     0     0
SMALL
bcc


@<TRIPOS>ATOM
      1 C1I         -0.1360     0.3150    -1.1190 c          1 LIN       0.947600
      2 C2I         -0.8860    -0.3940     0.0340 c3         1 LIN      -0.321400
      3 C3I         -0.0350    -0.4730     1.2740 c          1 LIN       0.607100
      4 C4I         -0.5430     0.2510     2.4860 c3         1 LIN      -0.202100
      5 O1I          0.5660     1.2860    -0.7770 o          1 LIN      -0.832800
      6 O2I          1.0100    -1.0890     1.2780 o          1 LIN      -0.563100
      7 O3I         -0.3110    -0.1240    -2.2680 o          1 LIN      -0.832800
      8 H2I1        -1.1980    -1.4020    -0.2510 hc         1 LIN       0.035700
      9 H2I2        -1.7980     0.1730     0.2400 hc         1 LIN       0.035700
     10 H4I1         0.0650     0.0560     3.3680 hc         1 LIN       0.042033
     11 H4I2        -0.5380     1.3240     2.2780 hc         1 LIN       0.042033
     12 H4I3        -1.5820    -0.0210     2.6870 hc         1 LIN       0.042033
@<TRIPOS>BOND
     1     1     2 1   
     2     1     5 1   
     3     1     7 1   
     4     2     3 1   
     5     2     8 1   
     6     2     9 1   
     7     3     4 1   
     8     3     6 2   
     9     4    10 1   
    10     4    11 1   
    11     4    12 1   
@<TRIPOS>SUBSTRUCTURE
     1 LIN         1 TEMP              0 ****  ****    0 ROOT
