@<TRIPOS>MOLECULE
LIN
   12    11     1     0     0
SMALL
No Charge or Current Charge


@<TRIPOS>ATOM
      1 C1I         -0.1900     0.4370    -0.9450 c          1 LIN       0.737000
      2 C2I         -1.0980    -0.3240    -0.0070 c3         1 LIN      -0.321400
      3 C3I         -0.2220    -0.6870     1.1780 c          1 LIN       0.607100
      4 C4I         -0.3090     0.2160     2.4120 c3         1 LIN      -0.202100
      5 O1I         -0.0760     1.6400    -0.7760 o          1 LIN      -0.727500
      6 O2I          0.5060    -1.6720     1.1650 o          1 LIN      -0.563100
      7 O3I          0.4280    -0.1930    -1.7870 o          1 LIN      -0.727500
      8 H2I1        -1.4260    -1.2650    -0.4640 hc         1 LIN       0.035700
      9 H2I2        -1.8830     0.3440     0.3670 hc         1 LIN       0.035700
     10 H4I1         0.3680    -0.0960     3.2160 hc         1 LIN       0.042033
     11 H4I2        -0.1360     1.2560     2.1130 hc         1 LIN       0.042033
     12 H4I3        -1.3490     0.2460     2.7570 hc         1 LIN       0.042033
@<TRIPOS>BOND
     1     1     2 1   
     2     1     5 1   
     3     1     7 1   
     4     2     3 1   
     5     2     8 1   
     6     2     9 1   
     7     3     4 1   
     8     3     6 2   
     9     4    10 1   
    10     4    11 1   
    11     4    12 1   
@<TRIPOS>SUBSTRUCTURE
     1 LIN         1 TEMP              0 ****  ****    0 ROOT
