@<TRIPOS>MOLECULE
LIO
  109   108     1     0     0
SMALL
bcc


@<TRIPOS>ATOM
      1 C1          -3.1940     2.6940    -2.3670 c3         1 LIO       0.185400
      2 C2          -3.4890     1.4000    -3.1160 c3         1 LIO       0.145100
      3 C3          -2.2870     0.7650    -3.7760 c3         1 LIO       0.146400
      4 C4          -1.2670     3.4640     2.2020 c3         1 LIO       0.189400
      5 C5          -0.3790     2.5860     3.0540 c3         1 LIO       0.113800
      6 C6           1.7210     3.4220     2.0460 c3         1 LIO       0.099767
      7 C7           1.7340     1.5560     3.5980 c3         1 LIO       0.099767
      8 C8           0.8660     1.2570     1.3620 c3         1 LIO       0.099767
      9 C11         -0.0440     0.2710    -3.2430 c          1 LIO       0.650100
     10 C12          0.9470     0.2590    -2.1130 c3         1 LIO      -0.148400
     11 C13          2.3280    -0.2340    -2.5140 c3         1 LIO      -0.069400
     12 C14          3.3140    -0.1980    -1.3530 c3         1 LIO      -0.071400
     13 C15          4.6970    -0.7050    -1.7440 c3         1 LIO      -0.078400
     14 C16          5.7040    -0.6680    -0.6020 c3         1 LIO      -0.071400
     15 C17          7.0820    -1.1740    -1.0090 c3         1 LIO      -0.076400
     16 C18          8.1040    -1.1360     0.1200 c3         1 LIO      -0.072400
     17 C19          9.4790    -1.6400    -0.3010 c3         1 LIO      -0.075400
     18 C20         10.5120    -1.5990     0.8180 c3         1 LIO      -0.073400
     19 C21         11.8840    -2.1010     0.3850 c3         1 LIO      -0.074400
     20 C22         12.9260    -2.0550     1.4960 c3         1 LIO      -0.074400
     21 C23         14.2960    -2.5540     1.0550 c3         1 LIO      -0.075400
     22 C24         15.3440    -2.5050     2.1600 c3         1 LIO      -0.074400
     23 C25         16.7090    -3.0040     1.7060 c3         1 LIO      -0.088100
     24 C32         -5.7600    -0.5430    -0.9460 c3         1 LIO      -0.137400
     25 C33         -7.2670    -0.6790    -0.7900 c3         1 LIO      -0.069400
     26 C34         -7.6400    -1.7440     0.2340 c3         1 LIO      -0.075400
     27 C35         -9.1470    -1.9100     0.3870 c3         1 LIO      -0.075400
     28 C36         -9.5340    -2.9620     1.4180 c3         1 LIO      -0.074400
     29 C37        -11.0410    -3.1330     1.5640 c3         1 LIO      -0.075400
     30 C38        -11.4310    -4.1840     2.5960 c3         1 LIO      -0.075400
     31 C39        -12.9380    -4.3560     2.7420 c3         1 LIO      -0.075400
     32 C40        -13.3180    -5.4070     3.7760 c3         1 LIO      -0.088100
     33 N            0.9740     2.2160     2.4980 n4         1 LIO      -0.598800
     34 O2          -4.0630     0.4230    -2.2430 os         1 LIO      -0.403900
     35 O3          -1.2660     0.5530    -2.8090 os         1 LIO      -0.388900
     36 O11          0.2180     0.0780    -4.4050 o          1 LIO      -0.553000
     37 O31         -6.0800     1.3780    -2.3620 o          1 LIO      -0.545000
     38 O1P         -0.3280     3.5770    -0.8670 o          1 LIO      -0.819000
     39 O2P         -2.5200     4.8350    -0.2980 o          1 LIO      -0.819000
     40 O3P         -2.6140     2.3960    -1.1170 os         1 LIO      -0.553200
     41 O4P         -1.7880     2.7790     1.0870 os         1 LIO      -0.549200
     42 P           -1.7450     3.5550    -0.3670 p5         1 LIO       1.381800
     43 H11         -2.5420     3.3040    -3.0030 h1         1 LIO       0.043200
     44 H12         -4.1210     3.2560    -2.2300 h1         1 LIO       0.043200
     45 H21         -4.1840     1.6360    -3.9280 h1         1 LIO       0.063700
     46 H31         -1.9380     1.4360    -4.5650 h1         1 LIO       0.053700
     47 H32         -2.5740    -0.1790    -4.2470 h1         1 LIO       0.053700
     48 H41         -0.7450     4.3870     1.9330 h1         1 LIO       0.056200
     49 H42         -2.0850     3.7670     2.8620 h1         1 LIO       0.056200
     50 H51         -0.1860     3.1190     3.9840 hx         1 LIO       0.080200
     51 H52         -0.8790     1.6500     3.3030 hx         1 LIO       0.080200
     52 H61          1.7340     4.1620     2.8430 hx         1 LIO       0.095700
     53 H62          2.7410     3.1290     1.8090 hx         1 LIO       0.095700
     54 H63          1.2510     3.8290     1.1560 hx         1 LIO       0.095700
     55 H71          1.1900     0.6730     3.9240 hx         1 LIO       0.095700
     56 H72          2.7140     1.2670     3.2290 hx         1 LIO       0.095700
     57 H73          1.8420     2.2490     4.4280 hx         1 LIO       0.095700
     58 H81          0.4070     1.7480     0.5120 hx         1 LIO       0.095700
     59 H82          1.8680     0.9290     1.0960 hx         1 LIO       0.095700
     60 H83          0.2770     0.3980     1.6730 hx         1 LIO       0.095700
     61 H121         0.5420    -0.3430    -1.2950 hc         1 LIO       0.076700
     62 H122         0.9920     1.2840    -1.7300 hc         1 LIO       0.076700
     63 H131         2.7150     0.3770    -3.3340 hc         1 LIO       0.057700
     64 H132         2.2560    -1.2550    -2.8970 hc         1 LIO       0.057700
     65 H141         2.9300    -0.8000    -0.5210 hc         1 LIO       0.024200
     66 H142         3.3990     0.8270    -0.9760 hc         1 LIO       0.024200
     67 H151         5.0750    -0.1070    -2.5810 hc         1 LIO       0.045700
     68 H152         4.6120    -1.7300    -2.1200 hc         1 LIO       0.045700
     69 H161         5.3290    -1.2680     0.2350 hc         1 LIO       0.029200
     70 H162         5.7890     0.3570    -0.2250 hc         1 LIO       0.029200
     71 H171         7.4500    -0.5780    -1.8510 hc         1 LIO       0.041700
     72 H172         6.9940    -2.2010    -1.3830 hc         1 LIO       0.041700
     73 H181         7.7400    -1.7340     0.9630 hc         1 LIO       0.033700
     74 H182         8.1930    -0.1100     0.4940 hc         1 LIO       0.033700
     75 H191         9.8370    -1.0440    -1.1480 hc         1 LIO       0.039200
     76 H192         9.3890    -2.6670    -0.6730 hc         1 LIO       0.039200
     77 H201        10.1570    -2.1970     1.6650 hc         1 LIO       0.035700
     78 H202        10.6020    -0.5720     1.1900 hc         1 LIO       0.035700
     79 H211        12.2350    -1.5060    -0.4660 hc         1 LIO       0.038200
     80 H212        11.7930    -3.1290     0.0160 hc         1 LIO       0.038200
     81 H221        12.5780    -2.6520     2.3460 hc         1 LIO       0.035700
     82 H222        13.0160    -1.0280     1.8660 hc         1 LIO       0.035700
     83 H231        14.6410    -1.9600     0.2020 hc         1 LIO       0.037700
     84 H232        14.2070    -3.5830     0.6890 hc         1 LIO       0.037700
     85 H241        15.0010    -3.0990     3.0130 hc         1 LIO       0.035700
     86 H242        15.4340    -1.4770     2.5270 hc         1 LIO       0.035700
     87 H251        17.4440    -2.9510     2.5090 hc         1 LIO       0.031700
     88 H252        16.6590    -4.0420     1.3710 hc         1 LIO       0.031700
     89 H253        17.0870    -2.4090     0.8720 hc         1 LIO       0.031700
     90 H321        -5.3130    -1.4940    -1.2470 hc         1 LIO       0.069700
     91 H322        -5.3010    -0.2950     0.0170 hc         1 LIO       0.069700
     92 H331        -7.6980     0.2790    -0.4890 hc         1 LIO       0.053700
     93 H332        -7.7150    -0.9320    -1.7550 hc         1 LIO       0.053700
     94 H341        -7.1960    -2.7030    -0.0540 hc         1 LIO       0.035200
     95 H342        -7.2020    -1.4850     1.2040 hc         1 LIO       0.035200
     96 H351        -9.5910    -0.9480     0.6660 hc         1 LIO       0.040700
     97 H352        -9.5820    -2.1750    -0.5830 hc         1 LIO       0.040700
     98 H361        -9.0860    -3.9240     1.1420 hc         1 LIO       0.035700
     99 H362        -9.1040    -2.6950     2.3890 hc         1 LIO       0.035700
    100 H371       -11.4900    -2.1710     1.8380 hc         1 LIO       0.038200
    101 H372       -11.4710    -3.4020     0.5930 hc         1 LIO       0.038200
    102 H381       -10.9820    -5.1450     2.3230 hc         1 LIO       0.035700
    103 H382       -11.0020    -3.9150     3.5680 hc         1 LIO       0.035700
    104 H391       -13.3870    -3.3960     3.0150 hc         1 LIO       0.036700
    105 H392       -13.3670    -4.6250     1.7720 hc         1 LIO       0.036700
    106 H401       -12.9120    -6.3860     3.5100 hc         1 LIO       0.030700
    107 H402       -12.9290    -5.1490     4.7630 hc         1 LIO       0.030700
    108 H403       -14.4000    -5.5110     3.8640 hc         1 LIO       0.030700
    109 C31         -5.3510     0.5240    -1.9230 c          1 LIO       0.650100
@<TRIPOS>BOND
     1     1     2 1   
     2     1    40 1   
     3     1    43 1   
     4     1    44 1   
     5     2     3 1   
     6     2    34 1   
     7     2    45 1   
     8     3    35 1   
     9     3    46 1   
    10     3    47 1   
    11     4     5 1   
    12     4    41 1   
    13     4    48 1   
    14     4    49 1   
    15     5    33 1   
    16     5    50 1   
    17     5    51 1   
    18     6    33 1   
    19     6    52 1   
    20     6    53 1   
    21     6    54 1   
    22     7    33 1   
    23     7    55 1   
    24     7    56 1   
    25     7    57 1   
    26     8    33 1   
    27     8    58 1   
    28     8    59 1   
    29     8    60 1   
    30     9    10 1   
    31     9    35 1   
    32     9    36 2   
    33    10    11 1   
    34    10    61 1   
    35    10    62 1   
    36    11    12 1   
    37    11    63 1   
    38    11    64 1   
    39    12    13 1   
    40    12    65 1   
    41    12    66 1   
    42    13    14 1   
    43    13    67 1   
    44    13    68 1   
    45    14    15 1   
    46    14    69 1   
    47    14    70 1   
    48    15    16 1   
    49    15    71 1   
    50    15    72 1   
    51    16    17 1   
    52    16    73 1   
    53    16    74 1   
    54    17    18 1   
    55    17    75 1   
    56    17    76 1   
    57    18    19 1   
    58    18    77 1   
    59    18    78 1   
    60    19    20 1   
    61    19    79 1   
    62    19    80 1   
    63    20    21 1   
    64    20    81 1   
    65    20    82 1   
    66    21    22 1   
    67    21    83 1   
    68    21    84 1   
    69    22    23 1   
    70    22    85 1   
    71    22    86 1   
    72    23    87 1   
    73    23    88 1   
    74    23    89 1   
    75    24    25 1   
    76    24    90 1   
    77    24    91 1   
    78    24   109 1   
    79    25    26 1   
    80    25    92 1   
    81    25    93 1   
    82    26    27 1   
    83    26    94 1   
    84    26    95 1   
    85    27    28 1   
    86    27    96 1   
    87    27    97 1   
    88    28    29 1   
    89    28    98 1   
    90    28    99 1   
    91    29    30 1   
    92    29   100 1   
    93    29   101 1   
    94    30    31 1   
    95    30   102 1   
    96    30   103 1   
    97    31    32 1   
    98    31   104 1   
    99    31   105 1   
   100    32   106 1   
   101    32   107 1   
   102    32   108 1   
   103    34   109 1   
   104    37   109 2   
   105    38    42 1   
   106    39    42 1   
   107    40    42 1   
   108    41    42 1   
@<TRIPOS>SUBSTRUCTURE
     1 LIO         1 TEMP              0 ****  ****    0 ROOT
