@<TRIPOS>MOLECULE
LIO
  109   108     1     0     0
SMALL
No Charge or Current Charge


@<TRIPOS>ATOM
      1 C1          -1.9320     3.3290    -2.1900 c3         1 LIO       0.208600
      2 C2          -2.9720     2.2390    -2.5960 c3         1 LIO       0.168300
      3 C3          -2.4940     1.2550    -3.7020 c3         1 LIO       0.169600
      4 C4           0.1640     3.2220     1.3810 c3         1 LIO       0.212600
      5 C5          -0.7610     1.9730     1.3610 c3         1 LIO       0.085600
      6 C6           1.0480     0.4160     2.2660 c3         1 LIO       0.071567
      7 C7          -1.2160    -0.4660     1.7000 c3         1 LIO       0.071567
      8 C8           0.3180     0.2430    -0.1330 c3         1 LIO       0.071567
      9 C11         -0.8820    -0.4930    -4.0890 c          1 LIO       0.601100
     10 C12          0.1340    -1.4110    -3.4070 c3         1 LIO      -0.148400
     11 C13          1.5330    -0.7530    -3.3400 c3         1 LIO      -0.069400
     12 C14          2.5500    -1.5970    -2.5400 c3         1 LIO      -0.071400
     13 C15          3.9160    -0.8980    -2.3650 c3         1 LIO      -0.078400
     14 C16          4.8950    -1.7040    -1.4830 c3         1 LIO      -0.071400
     15 C17          6.2650    -1.0110    -1.3070 c3         1 LIO      -0.076400
     16 C18          7.2330    -1.8070    -0.4020 c3         1 LIO      -0.072400
     17 C19          8.5800    -1.0840    -0.1740 c3         1 LIO      -0.075400
     18 C20          9.5480    -1.8700     0.7400 c3         1 LIO      -0.073400
     19 C21         10.8820    -1.1280     0.9840 c3         1 LIO      -0.074400
     20 C22         11.8690    -1.9240     1.8670 c3         1 LIO      -0.074400
     21 C23         13.2270    -1.2090     2.0560 c3         1 LIO      -0.075400
     22 C24         14.2280    -2.0270     2.9010 c3         1 LIO      -0.074400
     23 C25         15.5990    -1.3370     3.0490 c3         1 LIO      -0.088100
     24 C32         -4.6300     1.1700     0.6200 c3         1 LIO      -0.137400
     25 C33         -6.0420     0.5690     0.4190 c3         1 LIO      -0.069400
     26 C34         -6.4170    -0.4470     1.5200 c3         1 LIO      -0.075400
     27 C35         -7.8370    -1.0320     1.3590 c3         1 LIO      -0.075400
     28 C36         -8.1670    -2.0990     2.4280 c3         1 LIO      -0.074400
     29 C37         -9.5780    -2.7080     2.2660 c3         1 LIO      -0.075400
     30 C38         -9.8860    -3.8110     3.3060 c3         1 LIO      -0.075400
     31 C39        -11.2920    -4.4300     3.1320 c3         1 LIO      -0.075400
     32 C40        -11.6090    -5.5290     4.1660 c3         1 LIO      -0.088100
     33 N           -0.1420     0.5560     1.2970 n4         1 LIO      -0.486000
     34 O2          -3.4290     1.4870    -1.4410 os         1 LIO      -0.427100
     35 O3          -1.4940     0.3440    -3.1950 os         1 LIO      -0.412100
     36 O11         -1.0970    -0.5010    -5.2950 o          1 LIO      -0.504000
     37 O31         -4.6380     3.2610    -0.6110 o          1 LIO      -0.496000
     38 O1P          1.7740     3.0400    -1.1530 o          1 LIO      -0.819000
     39 O2P          0.5180     4.9510    -2.0710 o          1 LIO      -0.819000
     40 O3P         -0.7190     2.7390    -1.7000 os         1 LIO      -0.576400
     41 O4P         -0.0980     4.0800     0.2570 os         1 LIO      -0.572400
     42 P            0.4540     3.7290    -1.2170 p5         1 LIO       1.381800
     43 H11         -1.7230     3.9410    -3.0770 h1         1 LIO       0.043200
     44 H12         -2.3640     3.9960    -1.4340 h1         1 LIO       0.043200
     45 H21         -3.8250     2.7750    -3.0350 h1         1 LIO       0.063700
     46 H31         -2.0900     1.8440    -4.5360 h1         1 LIO       0.053700
     47 H32         -3.3600     0.6960    -4.0800 h1         1 LIO       0.053700
     48 H41          1.2180     2.9160     1.3980 h1         1 LIO       0.056200
     49 H42         -0.0230     3.7700     2.3140 h1         1 LIO       0.056200
     50 H51         -1.3460     2.0070     2.2830 hx         1 LIO       0.080200
     51 H52         -1.4660     2.0640     0.5330 hx         1 LIO       0.080200
     52 H61          0.7300     0.6940     3.2760 hx         1 LIO       0.095700
     53 H62          1.3940    -0.6210     2.2630 hx         1 LIO       0.095700
     54 H63          1.8640     1.0670     1.9410 hx         1 LIO       0.095700
     55 H71         -2.0370    -0.4310     0.9790 hx         1 LIO       0.095700
     56 H72         -0.7750    -1.4650     1.7040 hx         1 LIO       0.095700
     57 H73         -1.5890    -0.2250     2.7020 hx         1 LIO       0.095700
     58 H81          1.1530     0.8940    -0.3980 hx         1 LIO       0.095700
     59 H82          0.6330    -0.8010    -0.1910 hx         1 LIO       0.095700
     60 H83         -0.5150     0.4170    -0.8220 hx         1 LIO       0.095700
     61 H121         0.2040    -2.3550    -3.9590 hc         1 LIO       0.076700
     62 H122        -0.1930    -1.5880    -2.3760 hc         1 LIO       0.076700
     63 H131         1.4440     0.2390    -2.8790 hc         1 LIO       0.057700
     64 H132         1.9120    -0.5950    -4.3590 hc         1 LIO       0.057700
     65 H141         2.6990    -2.5580    -3.0480 hc         1 LIO       0.024200
     66 H142         2.1350    -1.8200    -1.5500 hc         1 LIO       0.024200
     67 H151         3.7590     0.0910    -1.9150 hc         1 LIO       0.045700
     68 H152         4.3660    -0.7330    -3.3530 hc         1 LIO       0.045700
     69 H161         5.0470    -2.6970    -1.9240 hc         1 LIO       0.029200
     70 H162         4.4420    -1.8570    -0.4960 hc         1 LIO       0.029200
     71 H171         6.1090    -0.0130    -0.8780 hc         1 LIO       0.041700
     72 H172         6.7270    -0.8680    -2.2920 hc         1 LIO       0.041700
     73 H181         7.4210    -2.7900    -0.8530 hc         1 LIO       0.033700
     74 H182         6.7530    -1.9870     0.5680 hc         1 LIO       0.033700
     75 H191         8.3880    -0.1000     0.2710 hc         1 LIO       0.039200
     76 H192         9.0630    -0.9090    -1.1430 hc         1 LIO       0.039200
     77 H201         9.7570    -2.8470     0.2850 hc         1 LIO       0.035700
     78 H202         9.0610    -2.0630     1.7040 hc         1 LIO       0.035700
     79 H211        10.6760    -0.1600     1.4590 hc         1 LIO       0.038200
     80 H212        11.3570    -0.9150     0.0180 hc         1 LIO       0.038200
     81 H221        12.0430    -2.9080     1.4140 hc         1 LIO       0.035700
     82 H222        11.4140    -2.0990     2.8510 hc         1 LIO       0.035700
     83 H231        13.0610    -0.2360     2.5340 hc         1 LIO       0.037700
     84 H232        13.6690    -1.0110     1.0710 hc         1 LIO       0.037700
     85 H241        14.3750    -3.0110     2.4380 hc         1 LIO       0.035700
     86 H242        13.8060    -2.2010     3.8980 hc         1 LIO       0.035700
     87 H251        16.2780    -1.9570     3.6460 hc         1 LIO       0.031700
     88 H252        16.0590    -1.1760     2.0660 hc         1 LIO       0.031700
     89 H253        15.4930    -0.3660     3.5470 hc         1 LIO       0.031700
     90 H321        -3.9190     0.3380     0.6580 hc         1 LIO       0.069700
     91 H322        -4.6140     1.7330     1.5600 hc         1 LIO       0.069700
     92 H331        -6.7820     1.3810     0.4040 hc         1 LIO       0.053700
     93 H332        -6.0900     0.0750    -0.5600 hc         1 LIO       0.053700
     94 H341        -5.6880    -1.2670     1.5110 hc         1 LIO       0.035200
     95 H342        -6.3380     0.0400     2.5000 hc         1 LIO       0.035200
     96 H351        -8.5720    -0.2190     1.4210 hc         1 LIO       0.040700
     97 H352        -7.9350    -1.4780     0.3620 hc         1 LIO       0.040700
     98 H361        -7.4220    -2.9020     2.3720 hc         1 LIO       0.035700
     99 H362        -8.0800    -1.6500     3.4260 hc         1 LIO       0.035700
    100 H371       -10.3270    -1.9100     2.3540 hc         1 LIO       0.038200
    101 H372        -9.6750    -3.1290     1.2570 hc         1 LIO       0.038200
    102 H381        -9.1310    -4.6040     3.2240 hc         1 LIO       0.035700
    103 H382        -9.7990    -3.3900     4.3160 hc         1 LIO       0.035700
    104 H391       -12.0500    -3.6400     3.2110 hc         1 LIO       0.036700
    105 H392       -11.3770    -4.8570     2.1240 hc         1 LIO       0.036700
    106 H401       -10.8960    -6.3590     4.0830 hc         1 LIO       0.030700
    107 H402       -11.5630    -5.1300     5.1870 hc         1 LIO       0.030700
    108 H403       -12.6190    -5.9250     4.0010 hc         1 LIO       0.030700
    109 C31         -4.2470     2.1060    -0.5280 c          1 LIO       0.601100
@<TRIPOS>BOND
     1     1     2 1   
     2     1    40 1   
     3     1    43 1   
     4     1    44 1   
     5     2     3 1   
     6     2    34 1   
     7     2    45 1   
     8     3    35 1   
     9     3    46 1   
    10     3    47 1   
    11     4     5 1   
    12     4    41 1   
    13     4    48 1   
    14     4    49 1   
    15     5    33 1   
    16     5    50 1   
    17     5    51 1   
    18     6    33 1   
    19     6    52 1   
    20     6    53 1   
    21     6    54 1   
    22     7    33 1   
    23     7    55 1   
    24     7    56 1   
    25     7    57 1   
    26     8    33 1   
    27     8    58 1   
    28     8    59 1   
    29     8    60 1   
    30     9    10 1   
    31     9    35 1   
    32     9    36 2   
    33    10    11 1   
    34    10    61 1   
    35    10    62 1   
    36    11    12 1   
    37    11    63 1   
    38    11    64 1   
    39    12    13 1   
    40    12    65 1   
    41    12    66 1   
    42    13    14 1   
    43    13    67 1   
    44    13    68 1   
    45    14    15 1   
    46    14    69 1   
    47    14    70 1   
    48    15    16 1   
    49    15    71 1   
    50    15    72 1   
    51    16    17 1   
    52    16    73 1   
    53    16    74 1   
    54    17    18 1   
    55    17    75 1   
    56    17    76 1   
    57    18    19 1   
    58    18    77 1   
    59    18    78 1   
    60    19    20 1   
    61    19    79 1   
    62    19    80 1   
    63    20    21 1   
    64    20    81 1   
    65    20    82 1   
    66    21    22 1   
    67    21    83 1   
    68    21    84 1   
    69    22    23 1   
    70    22    85 1   
    71    22    86 1   
    72    23    87 1   
    73    23    88 1   
    74    23    89 1   
    75    24    25 1   
    76    24    90 1   
    77    24    91 1   
    78    24   109 1   
    79    25    26 1   
    80    25    92 1   
    81    25    93 1   
    82    26    27 1   
    83    26    94 1   
    84    26    95 1   
    85    27    28 1   
    86    27    96 1   
    87    27    97 1   
    88    28    29 1   
    89    28    98 1   
    90    28    99 1   
    91    29    30 1   
    92    29   100 1   
    93    29   101 1   
    94    30    31 1   
    95    30   102 1   
    96    30   103 1   
    97    31    32 1   
    98    31   104 1   
    99    31   105 1   
   100    32   106 1   
   101    32   107 1   
   102    32   108 1   
   103    34   109 1   
   104    37   109 2   
   105    38    42 1   
   106    39    42 1   
   107    40    42 1   
   108    41    42 1   
@<TRIPOS>SUBSTRUCTURE
     1 LIO         1 TEMP              0 ****  ****    0 ROOT
