@<TRIPOS>MOLECULE
LIQ
   87    89     1     0     0
SMALL
abcg2


@<TRIPOS>ATOM
      1 C7           3.9680    -3.0030    -0.0720 c3         1 LIQ      -0.293400
      2 C10          1.7040     0.2700     1.1550 c3         1 LIQ       0.071700
      3 N12         -0.4450     0.1960     0.0180 ns         1 LIQ      -0.503900
      4 C13         -1.6710     0.6660    -0.5910 c3         1 LIQ       0.082700
      5 C15         -0.3900     1.3560    -2.6310 ca         1 LIQ      -0.027300
      6 C17          0.6550     3.4320    -3.1750 ca         1 LIQ       0.213500
      7 C20          0.8050     0.7030    -2.9090 ca         1 LIQ      -0.168000
      8 C21         -2.8530    -0.1210    -0.0070 c3         1 LIQ       0.146300
      9 C22         -4.1970     0.3740    -0.5200 c3         1 LIQ       0.127800
     10 C24         -6.5830     0.2170    -0.2520 c3         1 LIQ       0.205100
     11 C26         -8.6360    -1.2250    -0.0670 ca         1 LIQ      -0.104000
     12 C1           6.6580    -5.7920    -0.1650 c3         1 LIQ      -0.077400
     13 C1A          6.8660    -7.0070    -1.0580 c3         1 LIQ      -0.089100
     14 C2           5.4090    -5.0020    -0.5350 c3         1 LIQ      -0.070400
     15 C3           5.2130    -3.7730     0.3460 c3         1 LIQ      -0.050400
     16 S8           3.7610    -1.5270     0.9210 s6         1 LIQ       1.068000
     17 O1           4.9330    -0.6740     0.7170 o          1 LIQ      -0.511500
     18 O2           3.4300    -1.9190     2.2930 o          1 LIQ      -0.511500
     19 C9           2.2970    -0.7640     0.1960 c3         1 LIQ      -0.308400
     20 C11          0.4790     1.0010     0.5690 c          1 LIQ       0.602100
     21 O3           0.3620     2.2050     0.6720 o          1 LIQ      -0.574100
     22 C14         -1.5730     0.5860    -2.1240 c3         1 LIQ      -0.051100
     23 C16         -0.4660     2.7390    -2.7690 ca         1 LIQ      -0.168000
     24 C18          1.8620     2.8170    -3.4490 ca         1 LIQ      -0.179000
     25 C19          1.9010     1.4460    -3.2980 ca         1 LIQ       0.213500
     26 O4          -2.6960    -1.5150    -0.1900 oh         1 LIQ      -0.660000
     27 N23         -5.2850    -0.2110     0.2360 n7         1 LIQ      -0.853400
     28 C25         -7.6970    -0.4050     0.5440 ca         1 LIQ      -0.093300
     29 C27         -9.6780    -1.8150     0.6500 ca         1 LIQ      -0.079300
     30 C29         -9.7630    -1.5660     2.0150 ca         1 LIQ      -0.102000
     31 C30         -8.8270    -0.7510     2.6440 ca         1 LIQ      -0.113000
     32 C31         -7.7980    -0.1760     1.9170 ca         1 LIQ      -0.085000
     33 C32        -11.7330    -1.8190    -0.8010 c3         1 LIQ      -0.087100
     34 N40          2.6870     1.2000     1.6310 ns         1 LIQ      -0.509900
     35 C41          3.4160     1.9840     0.8100 c          1 LIQ       0.641700
     36 O5           3.2790     2.0030    -0.3990 o          1 LIQ      -0.582100
     37 F19          3.0540     0.8090    -3.5450 f          1 LIQ      -0.174000
     38 F17          0.5780     4.7640    -3.3110 f          1 LIQ      -0.174000
     39 C43          4.4360     2.8320     1.4880 ca         1 LIQ      -0.199600
     40 C45          5.1600     2.3880     2.5910 ca         1 LIQ       0.370900
     41 N44          6.0970     3.1100     3.1900 nb         1 LIQ      -0.670000
     42 C46          6.3510     4.3200     2.7080 ca         1 LIQ       0.352900
     43 C47          5.7010     4.8540     1.6030 ca         1 LIQ      -0.176000
     44 C48          4.7340     4.0900     0.9750 ca         1 LIQ      -0.020000
     45 H71          4.0310    -2.6740    -1.1120 h1         1 LIQ       0.093700
     46 H72          3.0620    -3.6000     0.0460 h1         1 LIQ       0.093700
     47 H10          1.3450    -0.2680     2.0360 h1         1 LIQ       0.085700
     48 HN12        -0.3130    -0.8030     0.0330 hn         1 LIQ       0.319500
     49 H13         -1.8010     1.7100    -0.3030 h1         1 LIQ       0.093700
     50 H20          0.8820    -0.3740    -2.8170 ha         1 LIQ       0.127000
     51 H21         -2.8330     0.0350     1.0750 h1         1 LIQ       0.101700
     52 H221        -4.2380     1.4620    -0.4020 h1         1 LIQ       0.035700
     53 H222        -4.2890     0.1800    -1.6010 h1         1 LIQ       0.035700
     54 H241        -6.6330     1.3070    -0.1590 h1         1 LIQ       0.035700
     55 H242        -6.7290    -0.0040    -1.3210 h1         1 LIQ       0.035700
     56 H281       -10.1930    -3.3220    -0.7710 hc         1 LIQ       0.045200
     57 H282       -11.2040    -3.3120     0.6590 hc         1 LIQ       0.045200
     58 H11          6.5900    -6.1110     0.8790 hc         1 LIQ       0.041200
     59 H12          7.5320    -5.1360    -0.2260 hc         1 LIQ       0.041200
     60 H1A1         7.7610    -7.5610    -0.7750 hc         1 LIQ       0.033033
     61 H1A2         6.0190    -7.6910    -0.9950 hc         1 LIQ       0.033033
     62 H1A3         6.9750    -6.7130    -2.1040 hc         1 LIQ       0.033033
     63 H21A         5.4730    -4.6900    -1.5820 hc         1 LIQ       0.039700
     64 H22          4.5310    -5.6510    -0.4600 hc         1 LIQ       0.039700
     65 H31A         5.1270    -4.0790     1.3910 hc         1 LIQ       0.062700
     66 H32          6.0900    -3.1280     0.2690 hc         1 LIQ       0.062700
     67 H91          2.5830    -0.3360    -0.7640 h1         1 LIQ       0.109700
     68 H92          1.6010    -1.5850     0.0260 h1         1 LIQ       0.109700
     69 H141        -1.4900    -0.4570    -2.4400 hc         1 LIQ       0.051700
     70 H142        -2.4900     0.9830    -2.5640 hc         1 LIQ       0.051700
     71 H16         -1.3860     3.2690    -2.5540 ha         1 LIQ       0.127000
     72 H18          2.7320     3.3800    -3.7580 ha         1 LIQ       0.152000
     73 HO4         -2.8570    -1.7320    -1.1150 ho         1 LIQ       0.437000
     74 HN23        -5.2310    -1.2210     0.1670 hn         1 LIQ       0.421000
     75 H29        -10.5620    -2.0140     2.5950 ha         1 LIQ       0.111000
     76 H30         -8.9040    -0.5680     3.7080 ha         1 LIQ       0.114000
     77 H31         -7.0690     0.4530     2.4130 ha         1 LIQ       0.123000
     78 H321       -12.4450    -2.4520    -1.3320 hc         1 LIQ       0.034367
     79 H322       -12.2950    -1.1910    -0.1090 hc         1 LIQ       0.034367
     80 H323       -11.2570    -1.1650    -1.5320 hc         1 LIQ       0.034367
     81 HN40         2.7350     1.3470     2.6250 hn         1 LIQ       0.338500
     82 H45          4.9950     1.3920     2.9900 h4         1 LIQ       0.026100
     83 H46          7.1140     4.8960     3.2210 h4         1 LIQ       0.019100
     84 H47          5.9530     5.8430     1.2480 ha         1 LIQ       0.127000
     85 H48          4.2100     4.4640     0.1060 ha         1 LIQ       0.138000
     86 H26         -8.5550    -1.4160    -1.1330 ha         1 LIQ       0.106000
     87 C28        -10.6980    -2.6640    -0.0590 c3         1 LIQ      -0.031100
@<TRIPOS>BOND
     1     1    15 1   
     2     1    16 1   
     3     1    45 1   
     4     1    46 1   
     5     2    19 1   
     6     2    20 1   
     7     2    34 1   
     8     2    47 1   
     9     3     4 1   
    10     3    20 1   
    11     3    48 1   
    12     4     8 1   
    13     4    22 1   
    14     4    49 1   
    15     5     7 ar  
    16     5    22 1   
    17     5    23 ar  
    18     6    23 ar  
    19     6    24 ar  
    20     6    38 1   
    21     7    25 ar  
    22     7    50 1   
    23     8     9 1   
    24     8    26 1   
    25     8    51 1   
    26     9    27 1   
    27     9    52 1   
    28     9    53 1   
    29    10    27 1   
    30    10    28 1   
    31    10    54 1   
    32    10    55 1   
    33    11    28 ar  
    34    11    29 ar  
    35    11    86 1   
    36    12    13 1   
    37    12    14 1   
    38    12    58 1   
    39    12    59 1   
    40    13    60 1   
    41    13    61 1   
    42    13    62 1   
    43    14    15 1   
    44    14    63 1   
    45    14    64 1   
    46    15    65 1   
    47    15    66 1   
    48    16    17 2   
    49    16    18 2   
    50    16    19 1   
    51    19    67 1   
    52    19    68 1   
    53    20    21 2   
    54    22    69 1   
    55    22    70 1   
    56    23    71 1   
    57    24    25 ar  
    58    24    72 1   
    59    25    37 1   
    60    26    73 1   
    61    27    74 1   
    62    28    32 ar  
    63    29    30 ar  
    64    29    87 1   
    65    30    31 ar  
    66    30    75 1   
    67    31    32 ar  
    68    31    76 1   
    69    32    77 1   
    70    33    78 1   
    71    33    79 1   
    72    33    80 1   
    73    33    87 1   
    74    34    35 1   
    75    34    81 1   
    76    35    36 2   
    77    35    39 1   
    78    39    40 ar  
    79    39    44 ar  
    80    40    41 ar  
    81    40    82 1   
    82    41    42 ar  
    83    42    43 ar  
    84    42    83 1   
    85    43    44 ar  
    86    43    84 1   
    87    44    85 1   
    88    56    87 1   
    89    57    87 1   
@<TRIPOS>SUBSTRUCTURE
     1 LIQ         1 TEMP              0 ****  ****    0 ROOT
