@<TRIPOS>MOLECULE
LIQ
   87    89     1     0     0
SMALL
No Charge or Current Charge


@<TRIPOS>ATOM
      1 C7           3.9330    -2.8700    -0.2790 c3         1 LIQ      -0.293400
      2 C10          1.7160     0.4280     1.3240 c3         1 LIQ       0.071700
      3 N12         -0.5290     0.3670     0.2480 ns         1 LIQ      -0.503900
      4 C13         -1.7250     0.8340    -0.4710 c3         1 LIQ       0.082700
      5 C15         -0.2110     1.0790    -2.5260 ca         1 LIQ      -0.027300
      6 C17          1.2870     2.9030    -3.1360 ca         1 LIQ       0.213500
      7 C20          0.8140     0.1600    -2.8280 ca         1 LIQ      -0.168000
      8 C21         -3.0150     0.2170     0.1540 c3         1 LIQ       0.146300
      9 C22         -4.3320     0.7430    -0.4890 c3         1 LIQ       0.127800
     10 C24         -6.8170     0.5540    -0.3840 c3         1 LIQ       0.205100
     11 C26         -8.5030    -1.3010     0.0540 ca         1 LIQ      -0.104000
     12 C1           6.4070    -5.9280    -0.6710 c3         1 LIQ      -0.077400
     13 C1A          6.7040    -6.9190    -1.8130 c3         1 LIQ      -0.089100
     14 C2           5.3210    -4.8930    -1.0360 c3         1 LIQ      -0.070400
     15 C3           5.0230    -3.9000     0.1070 c3         1 LIQ      -0.050400
     16 S8           3.5630    -1.6910     1.0410 s6         1 LIQ       1.068000
     17 O1           4.7680    -0.8870     1.2790 o          1 LIQ      -0.511500
     18 O2           2.9550    -2.4300     2.1530 o          1 LIQ      -0.511500
     19 C9           2.2960    -0.6250     0.3300 c3         1 LIQ      -0.308400
     20 C11          0.4560     1.1830     0.7720 c          1 LIQ       0.602100
     21 O3           0.3310     2.4010     0.7980 o          1 LIQ      -0.574100
     22 C14         -1.5560     0.5910    -1.9970 c3         1 LIQ      -0.051100
     23 C16          0.0340     2.4560    -2.6850 ca         1 LIQ      -0.168000
     24 C18          2.3040     1.9880    -3.4350 ca         1 LIQ      -0.179000
     25 C19          2.0630     0.6170    -3.2770 ca         1 LIQ       0.213500
     26 O4          -2.9690    -1.2290     0.0960 oh         1 LIQ      -0.660000
     27 N23         -5.5190     0.2420     0.2370 n7         1 LIQ      -0.853400
     28 C25         -7.9530    -0.0580     0.4250 ca         1 LIQ      -0.093300
     29 C27         -9.5570    -1.8690     0.7960 ca         1 LIQ      -0.079300
     30 C29        -10.0640    -1.1830     1.9160 ca         1 LIQ      -0.102000
     31 C30         -9.5190     0.0560     2.2920 ca         1 LIQ      -0.113000
     32 C31         -8.4670     0.6170     1.5490 ca         1 LIQ      -0.085000
     33 C32        -11.2710    -3.0570    -0.6580 c3         1 LIQ      -0.087100
     34 N40          2.7430     1.3810     1.8100 ns         1 LIQ      -0.509900
     35 C41          3.5090     2.2200     1.0190 c          1 LIQ       0.641700
     36 O5           3.3860     2.2470    -0.1970 o          1 LIQ      -0.582100
     37 F19          3.0420    -0.2720    -3.5520 f          1 LIQ      -0.174000
     38 F17          1.5130     4.2270    -3.2830 f          1 LIQ      -0.174000
     39 C43          4.5060     3.1000     1.7200 ca         1 LIQ      -0.199600
     40 C45          4.6870     3.0470     3.1160 ca         1 LIQ       0.370900
     41 N44          5.5750     3.8220     3.7820 nb         1 LIQ      -0.670000
     42 C46          6.3250     4.6890     3.0650 ca         1 LIQ       0.352900
     43 C47          6.2170     4.8110     1.6720 ca         1 LIQ      -0.176000
     44 C48          5.2960     4.0070     0.9830 ca         1 LIQ      -0.020000
     45 H71          4.2510    -2.2760    -1.1430 h1         1 LIQ       0.093700
     46 H72          2.9900    -3.3760    -0.5150 h1         1 LIQ       0.093700
     47 H10          1.3430    -0.1200     2.2010 h1         1 LIQ       0.085700
     48 HN12        -0.3830    -0.6330     0.3160 hn         1 LIQ       0.319500
     49 H13         -1.8030     1.9210    -0.3310 h1         1 LIQ       0.093700
     50 H20          0.6500    -0.9070    -2.7060 ha         1 LIQ       0.127000
     51 H21         -3.0310     0.5350     1.2060 h1         1 LIQ       0.101700
     52 H221        -4.3210     1.8420    -0.4800 h1         1 LIQ       0.035700
     53 H222        -4.3700     0.4230    -1.5400 h1         1 LIQ       0.035700
     54 H241        -6.9620     1.6410    -0.4430 h1         1 LIQ       0.035700
     55 H242        -6.8560     0.1630    -1.4100 h1         1 LIQ       0.035700
     56 H281        -9.3650    -3.8590    -0.0300 hc         1 LIQ       0.045200
     57 H282       -10.5460    -3.7370     1.2610 hc         1 LIQ       0.045200
     58 H11          6.0900    -6.4910     0.2160 hc         1 LIQ       0.041200
     59 H12          7.3340    -5.4050    -0.4030 hc         1 LIQ       0.041200
     60 H1A1         7.4790    -7.6330    -1.5080 hc         1 LIQ       0.033033
     61 H1A2         5.8040    -7.4850    -2.0800 hc         1 LIQ       0.033033
     62 H1A3         7.0590    -6.3890    -2.7050 hc         1 LIQ       0.033033
     63 H21A         5.6410    -4.3330    -1.9240 hc         1 LIQ       0.039700
     64 H22          4.3970    -5.4200    -1.3050 hc         1 LIQ       0.039700
     65 H31A         4.7020    -4.4600     0.9950 hc         1 LIQ       0.062700
     66 H32          5.9480    -3.3730     0.3760 hc         1 LIQ       0.062700
     67 H91          2.7480    -0.1450    -0.5430 h1         1 LIQ       0.109700
     68 H92          1.5140    -1.3110    -0.0130 h1         1 LIQ       0.109700
     69 H141        -1.6690    -0.4780    -2.2120 hc         1 LIQ       0.051700
     70 H142        -2.3630     1.0980    -2.5390 hc         1 LIQ       0.051700
     71 H16         -0.7390     3.1820    -2.4510 ha         1 LIQ       0.127000
     72 H18          3.2720     2.3380    -3.7780 ha         1 LIQ       0.152000
     73 HO4         -3.0890    -1.4870    -0.8430 ho         1 LIQ       0.437000
     74 HN23        -5.4380    -0.7800     0.3030 hn         1 LIQ       0.421000
     75 H29        -10.8800    -1.6100     2.4940 ha         1 LIQ       0.111000
     76 H30         -9.9130     0.5820     3.1580 ha         1 LIQ       0.114000
     77 H31         -8.0470     1.5760     1.8460 ha         1 LIQ       0.123000
     78 H321       -11.6760    -4.0380    -0.9330 hc         1 LIQ       0.034367
     79 H322       -12.0890    -2.4460    -0.2570 hc         1 LIQ       0.034367
     80 H323       -10.8910    -2.5730    -1.5660 hc         1 LIQ       0.034367
     81 HN40         2.8890     1.4450     2.8100 hn         1 LIQ       0.338500
     82 H45          4.1120     2.3660     3.7410 h4         1 LIQ       0.026100
     83 H46          7.0310     5.3010     3.6250 h4         1 LIQ       0.019100
     84 H47          6.8420     5.5220     1.1390 ha         1 LIQ       0.127000
     85 H48          5.2000     4.0910    -0.0980 ha         1 LIQ       0.138000
     86 H26         -8.1110    -1.8270    -0.8140 ha         1 LIQ       0.106000
     87 C28        -10.1480    -3.2110     0.3840 c3         1 LIQ      -0.031100
@<TRIPOS>BOND
     1     1    15 1   
     2     1    16 1   
     3     1    45 1   
     4     1    46 1   
     5     2    19 1   
     6     2    20 1   
     7     2    34 1   
     8     2    47 1   
     9     3     4 1   
    10     3    20 1   
    11     3    48 1   
    12     4     8 1   
    13     4    22 1   
    14     4    49 1   
    15     5     7 ar  
    16     5    22 1   
    17     5    23 ar  
    18     6    23 ar  
    19     6    24 ar  
    20     6    38 1   
    21     7    25 ar  
    22     7    50 1   
    23     8     9 1   
    24     8    26 1   
    25     8    51 1   
    26     9    27 1   
    27     9    52 1   
    28     9    53 1   
    29    10    27 1   
    30    10    28 1   
    31    10    54 1   
    32    10    55 1   
    33    11    28 ar  
    34    11    29 ar  
    35    11    86 1   
    36    12    13 1   
    37    12    14 1   
    38    12    58 1   
    39    12    59 1   
    40    13    60 1   
    41    13    61 1   
    42    13    62 1   
    43    14    15 1   
    44    14    63 1   
    45    14    64 1   
    46    15    65 1   
    47    15    66 1   
    48    16    17 2   
    49    16    18 2   
    50    16    19 1   
    51    19    67 1   
    52    19    68 1   
    53    20    21 2   
    54    22    69 1   
    55    22    70 1   
    56    23    71 1   
    57    24    25 ar  
    58    24    72 1   
    59    25    37 1   
    60    26    73 1   
    61    27    74 1   
    62    28    32 ar  
    63    29    30 ar  
    64    29    87 1   
    65    30    31 ar  
    66    30    75 1   
    67    31    32 ar  
    68    31    76 1   
    69    32    77 1   
    70    33    78 1   
    71    33    79 1   
    72    33    80 1   
    73    33    87 1   
    74    34    35 1   
    75    34    81 1   
    76    35    36 2   
    77    35    39 1   
    78    39    40 ar  
    79    39    44 ar  
    80    40    41 ar  
    81    40    82 1   
    82    41    42 ar  
    83    42    43 ar  
    84    42    83 1   
    85    43    44 ar  
    86    43    84 1   
    87    44    85 1   
    88    56    87 1   
    89    57    87 1   
@<TRIPOS>SUBSTRUCTURE
     1 LIQ         1 TEMP              0 ****  ****    0 ROOT
