@<TRIPOS>MOLECULE
LIS
   17    17     1     0     0
SMALL
abcg2


@<TRIPOS>ATOM
      1 N            1.6470     0.8510     0.7000 n8         1 LIS      -0.987200
      2 CA           0.2520     0.4710     0.5450 c3         1 LIS       0.026500
      3 CB          -0.0070    -0.6050    -0.5280 c3         1 LIS      -0.099400
      4 CG           0.4300    -0.1930    -1.9040 cx         1 LIS       0.097300
      5 C           -0.3150    -0.0560     1.8800 c          1 LIS       0.726000
      6 CD          -0.3360    -0.5380    -3.0960 cx         1 LIS       0.050600
      7 OXT         -1.5370     0.1060     2.0690 o          1 LIS      -0.731000
      8 O            0.4840    -0.6460     2.6340 o          1 LIS      -0.731000
      9 OD1         -0.3720     0.7780    -2.5650 op         1 LIS      -0.446000
     10 HN1          2.1640     0.0550     1.0530 hn         1 LIS       0.373000
     11 HN2          2.0570     1.0950    -0.1930 hn         1 LIS       0.373000
     12 HA          -0.3120     1.3650     0.2590 h1         1 LIS       0.056700
     13 HBC1         0.5320    -1.5190    -0.2540 hc         1 LIS       0.055200
     14 HBC2        -1.0710    -0.8560    -0.5430 hc         1 LIS       0.055200
     15 HG           1.5010    -0.0390    -2.0330 h1         1 LIS       0.061700
     16 HDC1         0.1690    -0.6520    -4.0520 h1         1 LIS       0.060200
     17 HDC2        -1.2510    -1.1170    -2.9930 h1         1 LIS       0.060200
@<TRIPOS>BOND
     1     1     2 1   
     2     1    10 1   
     3     1    11 1   
     4     2     3 1   
     5     2     5 1   
     6     2    12 1   
     7     3     4 1   
     8     3    13 1   
     9     3    14 1   
    10     4     6 1   
    11     4     9 1   
    12     4    15 1   
    13     5     7 1   
    14     5     8 1   
    15     6     9 1   
    16     6    16 1   
    17     6    17 1   
@<TRIPOS>SUBSTRUCTURE
     1 LIS         1 TEMP              0 ****  ****    0 ROOT
