@<TRIPOS>MOLECULE
LIS
   17    17     1     0     0
SMALL
No Charge or Current Charge


@<TRIPOS>ATOM
      1 N            1.7680     0.7550     0.7000 n8         1 LIS      -0.987200
      2 CA           0.2890     0.4610     0.6130 c3         1 LIS       0.026500
      3 CB           0.0050    -0.5360    -0.5420 c3         1 LIS      -0.099400
      4 CG           0.2970     0.0180    -1.9350 cx         1 LIS       0.097300
      5 C           -0.4070    -0.0240     1.9540 c          1 LIS       0.726000
      6 CD          -0.2310    -0.6870    -3.1510 cx         1 LIS       0.050600
      7 OXT         -1.2640     0.6930     2.4570 o          1 LIS      -0.731000
      8 O           -0.0240    -1.0670     2.4710 o          1 LIS      -0.731000
      9 OD1         -0.8260     0.5440    -2.6780 op         1 LIS      -0.446000
     10 HN1          2.2570    -0.0950     1.0070 hn         1 LIS       0.373000
     11 HN2          2.1410     0.9350    -0.2380 hn         1 LIS       0.373000
     12 HA          -0.2090     1.4050     0.3470 h1         1 LIS       0.056700
     13 HBC1         0.5850    -1.4530    -0.3820 hc         1 LIS       0.055200
     14 HBC2        -1.0500    -0.8320    -0.4900 hc         1 LIS       0.055200
     15 HG           1.2310     0.5710    -2.0400 h1         1 LIS       0.061700
     16 HDC1         0.3180    -0.6090    -4.0890 h1         1 LIS       0.060200
     17 HDC2        -0.8460    -1.5790    -3.0250 h1         1 LIS       0.060200
@<TRIPOS>BOND
     1     1     2 1   
     2     1    10 1   
     3     1    11 1   
     4     2     3 1   
     5     2     5 1   
     6     2    12 1   
     7     3     4 1   
     8     3    13 1   
     9     3    14 1   
    10     4     6 1   
    11     4     9 1   
    12     4    15 1   
    13     5     7 1   
    14     5     8 1   
    15     6     9 1   
    16     6    16 1   
    17     6    17 1   
@<TRIPOS>SUBSTRUCTURE
     1 LIS         1 TEMP              0 ****  ****    0 ROOT
