@<TRIPOS>MOLECULE
LIT
   22    23     1     0     0
SMALL
bcc


@<TRIPOS>ATOM
      1 C1           0.6910    -1.5190    -0.6700 cc         1 LIT       0.111200
      2 C2          -0.5880    -1.1480    -0.9340 cd         1 LIT      -0.148300
      3 C3          -0.7330    -1.3110    -2.3300 cd         1 LIT      -0.259300
      4 C4           0.4720    -1.7660    -2.7810 cc         1 LIT       0.292700
      5 C5           0.9350    -2.1150    -4.0920 cc         1 LIT       0.350400
      6 N6           2.0870    -2.5490    -4.4630 nd         1 LIT      -0.303000
      7 N7           2.0180    -2.7240    -5.8140 nd         1 LIT      -0.394000
      8 C8           0.8220    -2.3860    -6.1730 cc         1 LIT       0.552700
      9 S9           0.1870    -2.4320    -7.7790 ss         1 LIT      -0.114400
     10 C10         -1.4620    -1.7090    -7.5370 c3         1 LIT      -0.170300
     11 C11         -2.1330    -1.6820    -8.9260 c          1 LIT       0.949600
     12 O12         -3.2800    -1.2160    -8.9530 o          1 LIT      -0.802800
     13 O13         -1.4510    -2.1310    -9.8640 o          1 LIT      -0.802800
     14 O14          0.0840    -1.9900    -5.1240 os         1 LIT      -0.356800
     15 O15          1.3450    -1.8950    -1.7720 os         1 LIT      -0.246800
     16 N16          1.4050    -1.5670     0.5500 no         1 LIT       0.246500
     17 O17          0.7990    -1.2260     1.5410 o          1 LIT      -0.196500
     18 O18          2.5540    -1.9400     0.5230 o          1 LIT      -0.196500
     19 H101        -1.3750    -0.7010    -7.1300 h1         1 LIT       0.056700
     20 H102        -2.0430    -2.3140    -6.8400 h1         1 LIT       0.056700
     21 H3          -1.6140    -1.1150    -2.9190 ha         1 LIT       0.191000
     22 H2          -1.3300    -0.8050    -0.2330 ha         1 LIT       0.185000
@<TRIPOS>BOND
     1     1     2 2   
     2     1    15 1   
     3     1    16 1   
     4     2     3 1   
     5     2    22 1   
     6     3     4 2   
     7     3    21 1   
     8     4     5 1   
     9     4    15 1   
    10     5     6 2   
    11     5    14 1   
    12     6     7 1   
    13     7     8 2   
    14     8     9 1   
    15     8    14 1   
    16     9    10 1   
    17    10    11 1   
    18    10    19 1   
    19    10    20 1   
    20    11    12 1   
    21    11    13 1   
    22    16    17 1   
    23    16    18 1   
@<TRIPOS>SUBSTRUCTURE
     1 LIT         1 TEMP              0 ****  ****    0 ROOT
