@<TRIPOS>MOLECULE
LIT
   22    23     1     0     0
SMALL
No Charge or Current Charge


@<TRIPOS>ATOM
      1 C1           0.7070    -1.5640    -0.5670 cc         1 LIT       0.001500
      2 C2          -0.5860    -1.2970    -0.9540 cd         1 LIT      -0.065000
      3 C3          -0.6480    -1.4270    -2.3580 cd         1 LIT      -0.176000
      4 C4           0.6120    -1.7670    -2.7680 cc         1 LIT       0.183000
      5 C5           1.0370    -2.0070    -4.1230 cc         1 LIT       0.306000
      6 N6           2.2470    -2.3380    -4.5570 nd         1 LIT      -0.303000
      7 N7           2.1540    -2.4560    -5.9220 nd         1 LIT      -0.394000
      8 C8           0.8950    -2.1880    -6.2090 cc         1 LIT       0.508300
      9 S9           0.2840    -2.2130    -7.8580 ss         1 LIT      -0.162300
     10 C10         -1.5010    -1.7660    -7.6220 c3         1 LIT      -0.122400
     11 C11         -2.2650    -1.7210    -8.9530 c          1 LIT       0.739000
     12 O12         -2.3050    -0.6600    -9.5580 o          1 LIT      -0.697500
     13 O13         -2.8000    -2.7490    -9.3430 o          1 LIT      -0.697500
     14 O14          0.1300    -1.8960    -5.1320 os         1 LIT      -0.268000
     15 O15          1.4630    -1.8580    -1.6900 os         1 LIT      -0.158000
     16 N16          1.3180    -1.5730     0.7460 no         1 LIT       0.626500
     17 O17          0.5990    -1.3030     1.7170 o          1 LIT      -0.386500
     18 O18          2.5230    -1.8500     0.8300 o          1 LIT      -0.386500
     19 H101        -1.5690    -0.7800    -7.1460 h1         1 LIT       0.056700
     20 H102        -1.9780    -2.5060    -6.9690 h1         1 LIT       0.056700
     21 H3          -1.5180    -1.2860    -2.9910 ha         1 LIT       0.173000
     22 H2          -1.4080    -1.0350    -0.2930 ha         1 LIT       0.167000
@<TRIPOS>BOND
     1     1     2 2   
     2     1    15 1   
     3     1    16 1   
     4     2     3 1   
     5     2    22 1   
     6     3     4 2   
     7     3    21 1   
     8     4     5 1   
     9     4    15 1   
    10     5     6 2   
    11     5    14 1   
    12     6     7 1   
    13     7     8 2   
    14     8     9 1   
    15     8    14 1   
    16     9    10 1   
    17    10    11 1   
    18    10    19 1   
    19    10    20 1   
    20    11    12 1   
    21    11    13 1   
    22    16    17 1   
    23    16    18 1   
@<TRIPOS>SUBSTRUCTURE
     1 LIT         1 TEMP              0 ****  ****    0 ROOT
