@<TRIPOS>MOLECULE
LIU
   77    80     1     0     0
SMALL
bcc


@<TRIPOS>ATOM
      1 C1          -0.6290    -1.1790     0.5280 c6         1 LIU      -0.076900
      2 C2           0.0250    -2.5630     0.5200 c6         1 LIU      -0.046000
      3 C3          -0.4390    -3.2670    -0.7570 c6         1 LIU      -0.076900
      4 C4          -1.9490    -3.2940    -0.9060 c6         1 LIU       0.210800
      5 N5          -2.5300    -1.9570    -0.8330 nh         1 LIU      -0.662000
      6 C6          -2.1400    -1.2040     0.3480 c6         1 LIU       0.210800
      7 C7          -0.3680    -3.3630     1.7630 c3         1 LIU      -0.084600
      8 C8           1.5430    -2.4070     0.4950 c3         1 LIU      -0.084600
      9 C9          -3.7590    -1.7240    -1.4000 ca         1 LIU       0.215600
     10 C10         -4.1470    -2.3640    -2.5960 ca         1 LIU      -0.218000
     11 C11         -5.3730    -2.1290    -3.1700 ca         1 LIU      -0.038000
     12 C12         -6.2870    -1.2360    -2.6040 ca         1 LIU      -0.220600
     13 C13         -5.9140    -0.5960    -1.4230 ca         1 LIU      -0.038000
     14 C14         -4.6890    -0.8330    -0.8310 ca         1 LIU      -0.218000
     15 C15         -7.6040    -1.0840    -3.2400 c          1 LIU       0.721700
     16 O16         -8.0500    -1.8740    -4.0490 o          1 LIU      -0.564100
     17 N17         -8.3510     0.0110    -2.8510 ns         1 LIU      -0.657300
     18 S18         -9.9920     0.1490    -3.1690 sy         1 LIU       1.345900
     19 C19        -10.6220    -1.3240    -2.4610 ca         1 LIU      -0.384500
     20 C20        -11.0920    -2.3380    -3.2530 ca         1 LIU       0.116000
     21 C21        -11.4860    -3.5450    -2.6820 ca         1 LIU      -0.316200
     22 C22        -11.3510    -3.7900    -1.2800 ca         1 LIU       0.326600
     23 C23        -10.9240    -2.6750    -0.5090 ca         1 LIU      -0.259000
     24 C24        -10.5680    -1.4850    -1.0730 ca         1 LIU       0.044000
     25 N25        -11.5970    -4.9780    -0.7110 nu         1 LIU      -0.747600
     26 C26        -11.1110    -5.5100     0.5750 c3         1 LIU       0.274200
     27 C27         -9.5890    -5.2820     0.6340 c3         1 LIU      -0.032300
     28 S28         -8.8370    -6.0770     2.0810 ss         1 LIU      -0.245000
     29 C29         -7.2660    -5.2790     2.1620 ca         1 LIU       0.031900
     30 C30         -6.6750    -4.6260     1.0810 ca         1 LIU      -0.121500
     31 C31         -5.4280    -4.0330     1.2270 ca         1 LIU      -0.117000
     32 C32         -4.7500    -4.0980     2.4340 ca         1 LIU      -0.133000
     33 C33         -5.3320    -4.7640     3.5070 ca         1 LIU      -0.117000
     34 C34         -6.5830    -5.3450     3.3780 ca         1 LIU      -0.121500
     35 N35        -11.9750    -4.5420    -3.5970 no         1 LIU       0.328200
     36 O36        -12.3840    -5.6000    -3.1520 o          1 LIU      -0.227000
     37 O37        -11.9740    -4.2970    -4.7810 o          1 LIU      -0.227000
     38 O38        -10.3960     1.2930    -2.3720 o          1 LIU      -0.598800
     39 O39        -10.2340     0.1430    -4.5950 o          1 LIU      -0.598800
     40 C40        -11.4070    -7.0100     0.5120 c3         1 LIU      -0.107600
     41 C41        -11.8540    -4.9140     1.7700 c3         1 LIU      -0.107600
     42 H11A        -0.1970    -0.5770    -0.2780 hc         1 LIU       0.052200
     43 H12         -0.4050    -0.6560     1.4620 hc         1 LIU       0.052200
     44 H31A        -0.0740    -4.2980    -0.7790 hc         1 LIU       0.052200
     45 H32A        -0.0090    -2.7580    -1.6250 hc         1 LIU       0.052200
     46 H41         -2.1920    -3.7540    -1.8590 h1         1 LIU       0.041200
     47 H42         -2.3960    -3.9350    -0.1320 h1         1 LIU       0.041200
     48 H61         -2.6360    -1.5940     1.2500 h1         1 LIU       0.041200
     49 H62         -2.4720    -0.1720     0.2370 h1         1 LIU       0.041200
     50 H71          0.0120    -2.8820     2.6660 hc         1 LIU       0.035367
     51 H72         -1.4480    -3.4640     1.8830 hc         1 LIU       0.035367
     52 H73          0.0490    -4.3710     1.7230 hc         1 LIU       0.035367
     53 H81          1.8680    -1.8440    -0.3830 hc         1 LIU       0.035367
     54 H82          1.8990    -1.8780     1.3810 hc         1 LIU       0.035367
     55 H83          2.0410    -3.3790     0.4680 hc         1 LIU       0.035367
     56 H10         -3.4750    -3.0420    -3.1030 ha         1 LIU       0.138000
     57 H11         -5.6230    -2.6410    -4.0900 ha         1 LIU       0.139000
     58 H13         -6.5900     0.0720    -0.9040 ha         1 LIU       0.139000
     59 H14         -4.4840    -0.3420     0.1090 ha         1 LIU       0.138000
     60 HN17        -7.9620     0.7390    -2.2650 hn         1 LIU       0.346500
     61 H20        -11.1500    -2.2120    -4.3240 ha         1 LIU       0.197000
     62 H23        -10.8860    -2.7500     0.5640 ha         1 LIU       0.148000
     63 H24        -10.2440    -0.6790    -0.4280 ha         1 LIU       0.148000
     64 HN25       -11.9430    -5.6800    -1.3470 hn         1 LIU       0.474800
     65 H271        -9.1400    -5.6760    -0.2800 h1         1 LIU       0.076200
     66 H272        -9.3540    -4.2210     0.6970 h1         1 LIU       0.076200
     67 H30         -7.1700    -4.5750     0.1210 ha         1 LIU       0.138500
     68 H31         -4.9910    -3.5180     0.3820 ha         1 LIU       0.134500
     69 H32         -3.7800    -3.6330     2.5470 ha         1 LIU       0.130000
     70 H33         -4.8170    -4.8190     4.4570 ha         1 LIU       0.134500
     71 H34         -7.0340    -5.8440     4.2270 ha         1 LIU       0.138500
     72 H401       -11.1420    -7.4980     1.4490 hc         1 LIU       0.056200
     73 H402       -12.4720    -7.1830     0.3460 hc         1 LIU       0.056200
     74 H403       -10.8460    -7.4920    -0.2900 hc         1 LIU       0.056200
     75 H411       -11.6380    -3.8600     1.9340 hc         1 LIU       0.056200
     76 H412       -11.5780    -5.4400     2.6830 hc         1 LIU       0.056200
     77 H413       -12.9300    -5.0220     1.6320 hc         1 LIU       0.056200
@<TRIPOS>BOND
     1     1     2 1   
     2     1     6 1   
     3     1    42 1   
     4     1    43 1   
     5     2     3 1   
     6     2     7 1   
     7     2     8 1   
     8     3     4 1   
     9     3    44 1   
    10     3    45 1   
    11     4     5 1   
    12     4    46 1   
    13     4    47 1   
    14     5     6 1   
    15     5     9 1   
    16     6    48 1   
    17     6    49 1   
    18     7    50 1   
    19     7    51 1   
    20     7    52 1   
    21     8    53 1   
    22     8    54 1   
    23     8    55 1   
    24     9    10 ar  
    25     9    14 ar  
    26    10    11 ar  
    27    10    56 1   
    28    11    12 ar  
    29    11    57 1   
    30    12    13 ar  
    31    12    15 1   
    32    13    14 ar  
    33    13    58 1   
    34    14    59 1   
    35    15    16 2   
    36    15    17 1   
    37    17    18 1   
    38    17    60 1   
    39    18    19 1   
    40    18    38 2   
    41    18    39 2   
    42    19    20 ar  
    43    19    24 ar  
    44    20    21 ar  
    45    20    61 1   
    46    21    22 ar  
    47    21    35 1   
    48    22    23 ar  
    49    22    25 1   
    50    23    24 ar  
    51    23    62 1   
    52    24    63 1   
    53    25    26 1   
    54    25    64 1   
    55    26    27 1   
    56    26    40 1   
    57    26    41 1   
    58    27    28 1   
    59    27    65 1   
    60    27    66 1   
    61    28    29 1   
    62    29    30 ar  
    63    29    34 ar  
    64    30    31 ar  
    65    30    67 1   
    66    31    32 ar  
    67    31    68 1   
    68    32    33 ar  
    69    32    69 1   
    70    33    34 ar  
    71    33    70 1   
    72    34    71 1   
    73    35    36 1   
    74    35    37 1   
    75    40    72 1   
    76    40    73 1   
    77    40    74 1   
    78    41    75 1   
    79    41    76 1   
    80    41    77 1   
@<TRIPOS>SUBSTRUCTURE
     1 LIU         1 TEMP              0 ****  ****    0 ROOT
