@<TRIPOS>MOLECULE
LIU
   77    80     1     0     0
SMALL
No Charge or Current Charge


@<TRIPOS>ATOM
      1 C1           0.1560    -0.9320    -0.3160 c6         1 LIU      -0.076900
      2 C2           0.6060    -2.2140     0.4470 c6         1 LIU      -0.046000
      3 C3          -0.2910    -3.3980    -0.0240 c6         1 LIU      -0.076900
      4 C4          -1.8040    -3.0940     0.1160 c6         1 LIU       0.210800
      5 N5          -2.1680    -1.8350    -0.5920 nh         1 LIU      -0.800400
      6 C6          -1.3630    -0.6520    -0.1790 c6         1 LIU       0.210800
      7 C7           0.5120    -2.0130     1.9950 c3         1 LIU      -0.084600
      8 C8           2.0990    -2.5230     0.1250 c3         1 LIU      -0.084600
      9 C9          -3.4650    -1.6800    -1.1290 ca         1 LIU       0.354000
     10 C10         -3.9500    -2.6120    -2.0580 ca         1 LIU      -0.200000
     11 C11         -5.2350    -2.4790    -2.6080 ca         1 LIU      -0.020000
     12 C12         -6.0700    -1.4020    -2.2360 ca         1 LIU      -0.220600
     13 C13         -5.5790    -0.4630    -1.2970 ca         1 LIU      -0.020000
     14 C14         -4.2910    -0.6060    -0.7540 ca         1 LIU      -0.200000
     15 C15         -7.4510    -1.2950    -2.8470 c          1 LIU       0.654700
     16 O16         -7.8630    -2.1260    -3.6410 o          1 LIU      -0.564100
     17 N17         -8.2060    -0.2350    -2.4580 ns         1 LIU      -0.590300
     18 S18         -9.7980     0.0750    -2.8540 sy         1 LIU       1.204300
     19 C19        -10.6920    -1.3340    -2.2020 ca         1 LIU      -0.384500
     20 C20        -10.9550    -2.4400    -3.0310 ca         1 LIU       0.134000
     21 C21        -11.5980    -3.5770    -2.5020 ca         1 LIU      -0.316200
     22 C22        -11.9520    -3.6040    -1.1440 ca         1 LIU       0.465000
     23 C23        -11.7150    -2.4850    -0.3370 ca         1 LIU      -0.241000
     24 C24        -11.0840    -1.3480    -0.8550 ca         1 LIU       0.062000
     25 N25        -12.4860    -4.7440    -0.5530 nu         1 LIU      -0.941200
     26 C26        -11.8030    -5.6100     0.4230 c3         1 LIU       0.274200
     27 C27        -10.2820    -5.2620     0.4950 c3         1 LIU       0.015600
     28 S28         -9.3060    -6.3580     1.6260 ss         1 LIU      -0.166000
     29 C29         -7.6580    -5.6430     1.6760 ca         1 LIU      -0.095000
     30 C30         -7.2620    -4.5740     0.8410 ca         1 LIU      -0.103500
     31 C31         -5.9620    -4.0470     0.9370 ca         1 LIU      -0.099000
     32 C32         -5.0490    -4.5820     1.8600 ca         1 LIU      -0.115000
     33 C33         -5.4350    -5.6490     2.6870 ca         1 LIU      -0.099000
     34 C34         -6.7340    -6.1760     2.5940 ca         1 LIU      -0.103500
     35 N35        -11.8410    -4.7350    -3.3920 no         1 LIU       0.708200
     36 O36        -12.8830    -5.3850    -3.2380 o          1 LIU      -0.417000
     37 O37        -11.0520    -4.9180    -4.3250 o          1 LIU      -0.417000
     38 O38        -10.1590     1.2660    -2.0810 o          1 LIU      -0.528000
     39 O39         -9.8820     0.0520    -4.3180 o          1 LIU      -0.528000
     40 C40        -12.0140    -7.0620    -0.0660 c3         1 LIU      -0.107600
     41 C41        -12.4930    -5.4000     1.7890 c3         1 LIU      -0.107600
     42 H11A         0.3940    -1.0360    -1.3830 hc         1 LIU       0.052200
     43 H12          0.7210    -0.0590     0.0380 hc         1 LIU       0.052200
     44 H31A        -0.0490    -4.3080     0.5410 hc         1 LIU       0.052200
     45 H32A        -0.0780    -3.6270    -1.0770 hc         1 LIU       0.052200
     46 H41         -2.3700    -3.9460    -0.2880 h1         1 LIU       0.041200
     47 H42         -2.0680    -3.0130     1.1800 h1         1 LIU       0.041200
     48 H61         -1.6000    -0.3760     0.8590 h1         1 LIU       0.041200
     49 H62         -1.6110     0.2140    -0.8100 h1         1 LIU       0.041200
     50 H71          1.1520    -1.1870     2.3280 hc         1 LIU       0.035367
     51 H72         -0.5060    -1.7840     2.3270 hc         1 LIU       0.035367
     52 H73          0.8330    -2.9130     2.5330 hc         1 LIU       0.035367
     53 H81          2.2530    -2.6790    -0.9500 hc         1 LIU       0.035367
     54 H82          2.7550    -1.6990     0.4330 hc         1 LIU       0.035367
     55 H83          2.4420    -3.4290     0.6390 hc         1 LIU       0.035367
     56 H10         -3.3210    -3.4420    -2.3670 ha         1 LIU       0.120000
     57 H11         -5.5780    -3.2200    -3.3280 ha         1 LIU       0.121000
     58 H13         -6.1800     0.3820    -0.9720 ha         1 LIU       0.121000
     59 H14         -3.9440     0.1210    -0.0270 ha         1 LIU       0.120000
     60 HN17        -7.8570     0.4190    -1.7820 hn         1 LIU       0.346500
     61 H20        -10.6470    -2.4220    -4.0780 ha         1 LIU       0.179000
     62 H23        -12.0030    -2.5050     0.7080 ha         1 LIU       0.130000
     63 H24        -10.8860    -0.4990    -0.2020 ha         1 LIU       0.130000
     64 HN25       -13.0570    -5.2620    -1.2250 hn         1 LIU       0.530000
     65 H271        -9.8470    -5.3300    -0.5090 h1         1 LIU       0.076200
     66 H272       -10.1640    -4.2340     0.8560 h1         1 LIU       0.076200
     67 H30         -7.9420    -4.1410     0.1140 ha         1 LIU       0.120500
     68 H31         -5.6640    -3.2200     0.2970 ha         1 LIU       0.116500
     69 H32         -4.0460    -4.1710     1.9350 ha         1 LIU       0.112000
     70 H33         -4.7290    -6.0660     3.4020 ha         1 LIU       0.116500
     71 H34         -7.0270    -7.0000     3.2410 ha         1 LIU       0.120500
     72 H401       -11.6010    -7.7850     0.6470 hc         1 LIU       0.056200
     73 H402       -13.0810    -7.2880    -0.1820 hc         1 LIU       0.056200
     74 H403       -11.5230    -7.2240    -1.0340 hc         1 LIU       0.056200
     75 H411       -12.3450    -4.3760     2.1520 hc         1 LIU       0.056200
     76 H412       -12.0920    -6.0860     2.5440 hc         1 LIU       0.056200
     77 H413       -13.5720    -5.5800     1.7130 hc         1 LIU       0.056200
@<TRIPOS>BOND
     1     1     2 1   
     2     1     6 1   
     3     1    42 1   
     4     1    43 1   
     5     2     3 1   
     6     2     7 1   
     7     2     8 1   
     8     3     4 1   
     9     3    44 1   
    10     3    45 1   
    11     4     5 1   
    12     4    46 1   
    13     4    47 1   
    14     5     6 1   
    15     5     9 1   
    16     6    48 1   
    17     6    49 1   
    18     7    50 1   
    19     7    51 1   
    20     7    52 1   
    21     8    53 1   
    22     8    54 1   
    23     8    55 1   
    24     9    10 ar  
    25     9    14 ar  
    26    10    11 ar  
    27    10    56 1   
    28    11    12 ar  
    29    11    57 1   
    30    12    13 ar  
    31    12    15 1   
    32    13    14 ar  
    33    13    58 1   
    34    14    59 1   
    35    15    16 2   
    36    15    17 1   
    37    17    18 1   
    38    17    60 1   
    39    18    19 1   
    40    18    38 2   
    41    18    39 2   
    42    19    20 ar  
    43    19    24 ar  
    44    20    21 ar  
    45    20    61 1   
    46    21    22 ar  
    47    21    35 1   
    48    22    23 ar  
    49    22    25 1   
    50    23    24 ar  
    51    23    62 1   
    52    24    63 1   
    53    25    26 1   
    54    25    64 1   
    55    26    27 1   
    56    26    40 1   
    57    26    41 1   
    58    27    28 1   
    59    27    65 1   
    60    27    66 1   
    61    28    29 1   
    62    29    30 ar  
    63    29    34 ar  
    64    30    31 ar  
    65    30    67 1   
    66    31    32 ar  
    67    31    68 1   
    68    32    33 ar  
    69    32    69 1   
    70    33    34 ar  
    71    33    70 1   
    72    34    71 1   
    73    35    36 1   
    74    35    37 1   
    75    40    72 1   
    76    40    73 1   
    77    40    74 1   
    78    41    75 1   
    79    41    76 1   
    80    41    77 1   
@<TRIPOS>SUBSTRUCTURE
     1 LIU         1 TEMP              0 ****  ****    0 ROOT
