@<TRIPOS>MOLECULE
LIV
  107   111     1     0     0
SMALL
No Charge or Current Charge


@<TRIPOS>ATOM
      1 C11         -5.2240     1.4560     0.3150 c6         1 LIV       0.405300
      2 O11         -5.5730     0.2150     0.9740 os         1 LIV      -0.503000
      3 C21         -4.2730     2.3600     1.1900 c6         1 LIV       0.137500
      4 N21         -2.9920     1.7040     1.5850 n8         1 LIV      -0.987200
      5 C31         -5.0010     2.8790     2.4520 c6         1 LIV      -0.149400
      6 C41         -6.3320     3.5660     2.0580 c6         1 LIV       0.144300
      7 O41         -7.0300     3.9630     3.2480 oh         1 LIV      -0.715000
      8 C51         -7.1970     2.6030     1.1780 c6         1 LIV       0.161300
      9 O51         -6.4440     2.1650     0.0100 os         1 LIV      -0.463000
     10 C61         -8.5200     3.2790     0.6860 c3         1 LIV       0.172600
     11 O61         -9.3190     2.4270    -0.1590 oh         1 LIV      -0.709000
     12 C12         -5.3400    -3.8970    -0.2830 c6         1 LIV       0.114500
     13 N12         -5.2790    -5.1730    -1.0430 n8         1 LIV      -1.012200
     14 C62         -4.2520    -2.9300    -0.8120 c6         1 LIV       0.157300
     15 O62         -3.0850    -3.7470    -0.9020 oh         1 LIV      -0.718000
     16 C52         -4.1700    -1.6650     0.1160 c6         1 LIV       0.157300
     17 O52         -3.1210    -0.7000    -0.1980 os         1 LIV      -0.452000
     18 C42         -5.5700    -0.9590     0.1150 c6         1 LIV       0.179300
     19 C32         -6.7140    -1.9440     0.5480 c6         1 LIV       0.168500
     20 N32         -8.0420    -1.2930     0.4960 n8         1 LIV      -0.991200
     21 C22         -6.7310    -3.2340    -0.3170 c6         1 LIV      -0.111400
     22 C13         -1.7540    -1.1410    -0.3580 c5         1 LIV       0.352300
     23 C23         -1.4290    -1.1750    -1.9050 c5         1 LIV       0.142300
     24 O23         -1.4190    -2.4810    -2.5140 oh         1 LIV      -0.694000
     25 C33         -0.0610    -0.4230    -1.9640 c5         1 LIV       0.157300
     26 C43         -0.2920     0.6530    -0.8530 c5         1 LIV       0.108300
     27 O43         -0.9160    -0.1110     0.2140 os         1 LIV      -0.490000
     28 C53         -1.2010     1.8480    -1.2760 c3         1 LIV       0.170600
     29 O53         -1.3120     2.8120    -0.2140 oh         1 LIV      -0.755000
     30 C44          5.1630    -0.3420    -1.4510 c6         1 LIV       0.152300
     31 O44          5.3280    -0.2820    -0.0060 os         1 LIV      -0.446000
     32 C34          4.7860    -1.7810    -1.9520 c6         1 LIV       0.140300
     33 O34          4.9030    -1.8580    -3.3870 oh         1 LIV      -0.721000
     34 C24          3.3310    -2.1590    -1.5110 c6         1 LIV       0.119500
     35 N24          3.2520    -2.4370    -0.0410 n8         1 LIV      -0.972200
     36 C14          2.3380    -1.0260    -1.9770 c6         1 LIV       0.407300
     37 O33          1.0000    -1.3200    -1.5240 os         1 LIV      -0.427000
     38 C54          4.0640     0.6670    -1.9130 c6         1 LIV       0.195300
     39 O54          2.7590     0.2440    -1.4400 os         1 LIV      -0.454000
     40 C64          4.3340     2.1230    -1.4010 c3         1 LIV       0.150800
     41 N64          3.4260     3.1790    -1.9400 n8         1 LIV      -0.997200
     42 C15          6.5370    -0.8740     0.5130 c6         1 LIV       0.345300
     43 C25          6.4680    -1.0180     2.0760 c6         1 LIV       0.121300
     44 C35          6.4150     0.4020     2.7150 c6         1 LIV       0.144300
     45 C45          7.6150     1.2710     2.2240 c6         1 LIV       0.148300
     46 C55          7.6370     1.3030     0.6650 c6         1 LIV       0.172300
     47 C65          8.8700     2.0800     0.0970 c3         1 LIV       0.167600
     48 O25          7.6050    -1.7380     2.6240 oh         1 LIV      -0.693000
     49 O35          6.4370     0.2910     4.1500 oh         1 LIV      -0.656000
     50 O45          7.5240     2.5930     2.7950 oh         1 LIV      -0.725000
     51 O55          7.6650    -0.0520     0.1340 os         1 LIV      -0.457000
     52 O65          8.9190     2.0990    -1.3450 oh         1 LIV      -0.718000
     53 H11         -4.6940     1.2420    -0.6270 h2         1 LIV       0.107700
     54 H21         -4.0050     3.2280     0.5670 h1         1 LIV       0.073700
     55 H211        -3.0480     1.4820     2.5870 hn         1 LIV       0.410500
     56 H212        -2.9660     0.7610     1.1560 hn         1 LIV       0.410500
     57 H311        -4.3560     3.5870     2.9910 hc         1 LIV       0.050200
     58 H312        -5.2030     2.0440     3.1370 hc         1 LIV       0.050200
     59 H41         -6.0960     4.4570     1.4550 h1         1 LIV       0.037700
     60 H3          -6.4260     4.5590     3.7490 ho         1 LIV       0.504000
     61 H51         -7.4720     1.7250     1.7790 h1         1 LIV       0.087700
     62 H611        -9.1030     3.5770     1.5680 h1         1 LIV       0.030200
     63 H612        -8.2530     4.1980     0.1480 h1         1 LIV       0.030200
     64 H61        -10.0830     2.9670    -0.4700 ho         1 LIV       0.499000
     65 H12         -5.0990    -4.1410     0.7650 h1         1 LIV       0.066700
     66 H121        -5.8740    -5.8700    -0.5740 hn         1 LIV       0.404000
     67 H122        -5.7530    -5.0480    -1.9480 hn         1 LIV       0.404000
     68 H62         -4.5390    -2.5980    -1.8210 h1         1 LIV       0.044700
     69 H2          -3.5300    -4.6430    -0.9710 ho         1 LIV       0.528000
     70 H52         -3.9790    -2.0200     1.1390 h1         1 LIV       0.064700
     71 H42         -5.7950    -0.6450    -0.9160 h1         1 LIV       0.085700
     72 H32         -6.5360    -2.2190     1.5990 h1         1 LIV       0.023700
     73 H321        -8.6020    -1.6210     1.2910 hn         1 LIV       0.399000
     74 H322        -7.9000    -0.2950     0.6950 hn         1 LIV       0.399000
     75 H221        -7.0110    -2.9930    -1.3520 hc         1 LIV       0.053700
     76 H222        -7.4880    -3.9310     0.0670 hc         1 LIV       0.053700
     77 H13         -1.5640    -2.0940     0.1520 h2         1 LIV       0.070700
     78 H23         -2.1810    -0.5700    -2.4290 h1         1 LIV       0.050700
     79 H1          -2.0280    -3.0400    -1.9480 ho         1 LIV       0.518000
     80 H33          0.1610    -0.0060    -2.9560 h1         1 LIV       0.064700
     81 H43          0.6550     1.0700    -0.4890 h1         1 LIV       0.098700
     82 H531        -0.7560     2.3190    -2.1630 h1         1 LIV       0.042200
     83 H532        -2.1960     1.4850    -1.5640 h1         1 LIV       0.042200
     84 H53         -1.8700     2.3760     0.5040 ho         1 LIV       0.546000
     85 H34          5.4830    -2.5060    -1.5090 h1         1 LIV       0.031700
     86 H4           5.0050    -2.8110    -3.6200 ho         1 LIV       0.509000
     87 H24          3.0370    -3.0930    -2.0130 h1         1 LIV       0.022700
     88 H241         3.6310    -1.6080     0.4320 hn         1 LIV       0.399000
     89 H242         2.2580    -2.4100     0.2150 hn         1 LIV       0.399000
     90 H14          2.3380    -0.9730    -3.0760 h2         1 LIV       0.024700
     91 H54          4.0480     0.6960    -3.0120 h1         1 LIV       0.049700
     92 H11A         5.3670     2.3920    -1.6650 h1         1 LIV       0.054200
     93 H12A         4.2610     2.1260    -0.3040 h1         1 LIV       0.054200
     94 H641         3.7250     4.0960    -1.5870 hn         1 LIV       0.394500
     95 H642         3.5560     3.2550    -2.9560 hn         1 LIV       0.394500
     96 H15          6.6660    -1.8780     0.0850 h2         1 LIV       0.061700
     97 H25          5.5360    -1.5460     2.3260 h1         1 LIV       0.055700
     98 H35          5.4820     0.8890     2.3910 h1         1 LIV       0.071700
     99 H45          8.5470     0.7900     2.5590 h1         1 LIV       0.065700
    100 H55          6.7310     1.8110     0.3060 h1         1 LIV       0.065700
    101 H651         8.8360     3.1080     0.4820 h1         1 LIV       0.036200
    102 H652         9.7800     1.6130     0.4990 h1         1 LIV       0.036200
    103 H7           7.6010    -2.6430     2.2330 ho         1 LIV       0.499000
    104 H6           6.9800    -0.5150     4.3200 ho         1 LIV       0.450000
    105 H5           7.2110     2.4520     3.7210 ho         1 LIV       0.522000
    106 H65          9.7670     2.5340    -1.5980 ho         1 LIV       0.502000
    107 H44          6.1120    -0.0430    -1.9210 h1         1 LIV       0.072700
@<TRIPOS>BOND
     1     1     2 1   
     2     1     3 1   
     3     1     9 1   
     4     1    53 1   
     5     2    18 1   
     6     3     4 1   
     7     3     5 1   
     8     3    54 1   
     9     4    55 1   
    10     4    56 1   
    11     5     6 1   
    12     5    57 1   
    13     5    58 1   
    14     6     7 1   
    15     6     8 1   
    16     6    59 1   
    17     7    60 1   
    18     8     9 1   
    19     8    10 1   
    20     8    61 1   
    21    10    11 1   
    22    10    62 1   
    23    10    63 1   
    24    11    64 1   
    25    12    13 1   
    26    12    14 1   
    27    12    21 1   
    28    12    65 1   
    29    13    66 1   
    30    13    67 1   
    31    14    15 1   
    32    14    16 1   
    33    14    68 1   
    34    15    69 1   
    35    16    17 1   
    36    16    18 1   
    37    16    70 1   
    38    17    22 1   
    39    18    19 1   
    40    18    71 1   
    41    19    20 1   
    42    19    21 1   
    43    19    72 1   
    44    20    73 1   
    45    20    74 1   
    46    21    75 1   
    47    21    76 1   
    48    22    23 1   
    49    22    27 1   
    50    22    77 1   
    51    23    24 1   
    52    23    25 1   
    53    23    78 1   
    54    24    79 1   
    55    25    26 1   
    56    25    37 1   
    57    25    80 1   
    58    26    27 1   
    59    26    28 1   
    60    26    81 1   
    61    28    29 1   
    62    28    82 1   
    63    28    83 1   
    64    29    84 1   
    65    30    31 1   
    66    30    32 1   
    67    30    38 1   
    68    30   107 1   
    69    31    42 1   
    70    32    33 1   
    71    32    34 1   
    72    32    85 1   
    73    33    86 1   
    74    34    35 1   
    75    34    36 1   
    76    34    87 1   
    77    35    88 1   
    78    35    89 1   
    79    36    37 1   
    80    36    39 1   
    81    36    90 1   
    82    38    39 1   
    83    38    40 1   
    84    38    91 1   
    85    40    41 1   
    86    40    92 1   
    87    40    93 1   
    88    41    94 1   
    89    41    95 1   
    90    42    43 1   
    91    42    51 1   
    92    42    96 1   
    93    43    44 1   
    94    43    48 1   
    95    43    97 1   
    96    44    45 1   
    97    44    49 1   
    98    44    98 1   
    99    45    46 1   
   100    45    50 1   
   101    45    99 1   
   102    46    47 1   
   103    46    51 1   
   104    46   100 1   
   105    47    52 1   
   106    47   101 1   
   107    47   102 1   
   108    48   103 1   
   109    49   104 1   
   110    50   105 1   
   111    52   106 1   
@<TRIPOS>SUBSTRUCTURE
     1 LIV         1 TEMP              0 ****  ****    0 ROOT
