@<TRIPOS>MOLECULE
LIV
  107   111     1     0     0
SMALL
abcg2


@<TRIPOS>ATOM
      1 C11         -4.4770     1.5640     0.2010 c6         1 LIV       0.405300
      2 O11         -4.5130     0.5380     1.1590 os         1 LIV      -0.503000
      3 C21         -4.1940     2.8640     0.9530 c6         1 LIV       0.137500
      4 N21         -2.9550     2.7570     1.7100 n8         1 LIV      -0.987200
      5 C31         -5.4130     3.2640     1.7820 c6         1 LIV      -0.149400
      6 C41         -6.6630     3.3210     0.9120 c6         1 LIV       0.144300
      7 O41         -7.8280     3.5600     1.6700 oh         1 LIV      -0.715000
      8 C51         -6.8430     1.9890     0.1900 c6         1 LIV       0.161300
      9 O51         -5.6600     1.6730    -0.5330 os         1 LIV      -0.463000
     10 C61         -7.9720     2.0260    -0.8170 c3         1 LIV       0.172600
     11 O61         -8.1140     0.7470    -1.3910 oh         1 LIV      -0.709000
     12 C12         -4.9070    -3.6830     1.1160 c6         1 LIV       0.114500
     13 N12         -5.2930    -5.0350     0.7400 n8         1 LIV      -1.012200
     14 C62         -4.3200    -3.0030    -0.1170 c6         1 LIV       0.157300
     15 O62         -3.2840    -3.7790    -0.6600 oh         1 LIV      -0.718000
     16 C52         -3.7960    -1.6170     0.2390 c6         1 LIV       0.157300
     17 O52         -3.2520    -1.0050    -0.9160 os         1 LIV      -0.452000
     18 C42         -4.9390    -0.7590     0.7900 c6         1 LIV       0.179300
     19 C32         -5.5040    -1.4220     2.0490 c6         1 LIV       0.168500
     20 N32         -6.5900    -0.6290     2.6020 n8         1 LIV      -0.991200
     21 C22         -6.0110    -2.8200     1.7110 c6         1 LIV      -0.111400
     22 C13         -1.8730    -0.9350    -0.9770 c5         1 LIV       0.352300
     23 C23         -1.4320    -0.5380    -2.3800 c5         1 LIV       0.142300
     24 O23         -1.4150    -1.5670    -3.3190 oh         1 LIV      -0.694000
     25 C33         -0.0470     0.0450    -2.1270 c5         1 LIV       0.157300
     26 C43         -0.2110     0.6670    -0.7250 c5         1 LIV       0.108300
     27 O43         -1.4030     0.1110    -0.1660 os         1 LIV      -0.490000
     28 C53         -0.3110     2.1810    -0.7580 c3         1 LIV       0.170600
     29 O53         -0.4490     2.7500     0.5130 oh         1 LIV      -0.755000
     30 C44          4.9340    -0.1390    -1.8350 c6         1 LIV       0.152300
     31 O44          5.0680    -0.4940    -0.4770 os         1 LIV      -0.446000
     32 C34          4.5560    -1.3630    -2.6830 c6         1 LIV       0.140300
     33 O34          4.7610    -0.9760    -4.0230 oh         1 LIV      -0.721000
     34 C24          3.1040    -1.8230    -2.4560 c6         1 LIV       0.119500
     35 N24          2.9810    -2.5050    -1.1840 n8         1 LIV      -0.972200
     36 C14          2.1840    -0.6050    -2.5030 c6         1 LIV       0.407300
     37 O33          0.9060    -0.9950    -2.1430 os         1 LIV      -0.427000
     38 C54          3.8610     0.9340    -1.9580 c6         1 LIV       0.195300
     39 O54          2.6080     0.3920    -1.6190 os         1 LIV      -0.454000
     40 C64          4.1150     2.1490    -1.0820 c3         1 LIV       0.150800
     41 N64          3.2480     3.2520    -1.4600 n8         1 LIV      -0.997200
     42 C15          6.3160    -0.9680    -0.0890 c6         1 LIV       0.345300
     43 C25          6.1170    -1.7720     1.2000 c6         1 LIV       0.121300
     44 C35          5.7520    -0.8160     2.3300 c6         1 LIV       0.144300
     45 C45          6.7930     0.2910     2.4580 c6         1 LIV       0.148300
     46 C55          6.9580     0.9930     1.1090 c6         1 LIV       0.172300
     47 C65          8.0870     2.0020     1.1280 c3         1 LIV       0.167600
     48 O25          7.2990    -2.4450     1.5520 oh         1 LIV      -0.693000
     49 O35          5.6630    -1.4630     3.5780 oh         1 LIV      -0.656000
     50 O45          6.3860     1.2630     3.3930 oh         1 LIV      -0.725000
     51 O55          7.2500     0.0570     0.0860 os         1 LIV      -0.457000
     52 O65          8.0880     2.7030    -0.0940 oh         1 LIV      -0.718000
     53 H11         -3.6960     1.3890    -0.5400 h2         1 LIV       0.107700
     54 H21         -4.0370     3.6290     0.1840 h1         1 LIV       0.073700
     55 H211        -2.8140     3.6110     2.2380 hn         1 LIV       0.410500
     56 H212        -3.0340     2.0130     2.3920 hn         1 LIV       0.410500
     57 H311        -5.2350     4.2410     2.2430 hc         1 LIV       0.050200
     58 H312        -5.5660     2.5470     2.5950 hc         1 LIV       0.050200
     59 H41         -6.5240     4.1070     0.1520 h1         1 LIV       0.037700
     60 H3          -7.7380     4.4180     2.0970 ho         1 LIV       0.504000
     61 H51         -7.0570     1.2110     0.9360 h1         1 LIV       0.087700
     62 H611        -8.8850     2.3400    -0.3010 h1         1 LIV       0.030200
     63 H612        -7.7520     2.7910    -1.5760 h1         1 LIV       0.030200
     64 H61         -8.8870     0.7640    -1.9620 ho         1 LIV       0.499000
     65 H12         -4.1050    -3.7800     1.8570 h1         1 LIV       0.066700
     66 H121        -5.4580    -5.5950     1.5660 hn         1 LIV       0.404000
     67 H122        -6.1680    -5.0180     0.2280 hn         1 LIV       0.404000
     68 H62         -5.1340    -2.8780    -0.8550 h1         1 LIV       0.044700
     69 H2          -3.5800    -4.6950    -0.5440 ho         1 LIV       0.528000
     70 H52         -3.0270    -1.7170     1.0170 h1         1 LIV       0.064700
     71 H42         -5.7400    -0.6980     0.0410 h1         1 LIV       0.085700
     72 H32         -4.6700    -1.5350     2.7620 h1         1 LIV       0.023700
     73 H321        -6.9340    -1.0890     3.4360 hn         1 LIV       0.399000
     74 H322        -6.2310     0.2630     2.9150 hn         1 LIV       0.399000
     75 H221        -6.8490    -2.7420     1.0080 hc         1 LIV       0.053700
     76 H222        -6.3990    -3.2960     2.6160 hc         1 LIV       0.053700
     77 H13         -1.4220    -1.8930    -0.6760 h2         1 LIV       0.070700
     78 H23         -2.0820     0.2940    -2.6960 h1         1 LIV       0.050700
     79 H1          -2.3160    -1.8870    -3.4260 ho         1 LIV       0.518000
     80 H33          0.2040     0.8040    -2.8780 h1         1 LIV       0.064700
     81 H43          0.6390     0.3840    -0.0990 h1         1 LIV       0.098700
     82 H531         0.6230     2.5520    -1.1910 h1         1 LIV       0.042200
     83 H532        -1.1290     2.4740    -1.4370 h1         1 LIV       0.042200
     84 H53         -1.3720     2.6300     0.8470 ho         1 LIV       0.546000
     85 H34          5.2230    -2.2000    -2.4210 h1         1 LIV       0.031700
     86 H4           4.4690    -1.6890    -4.5990 ho         1 LIV       0.509000
     87 H24          2.8390    -2.4720    -3.3090 h1         1 LIV       0.022700
     88 H241         2.0930    -2.9870    -1.1440 hn         1 LIV       0.399000
     89 H242         3.6910    -3.2220    -1.1130 hn         1 LIV       0.399000
     90 H14          2.1830    -0.1940    -3.5310 h2         1 LIV       0.024700
     91 H54          3.8610     1.2650    -3.0090 h1         1 LIV       0.049700
     92 H11A         5.1860     2.3940    -1.1350 h1         1 LIV       0.054200
     93 H12A         3.9080     1.8840    -0.0440 h1         1 LIV       0.054200
     94 H641         3.2750     3.9620    -0.7410 hn         1 LIV       0.394500
     95 H642         3.6030     3.6930    -2.2990 hn         1 LIV       0.394500
     96 H15          6.7570    -1.6140    -0.8620 h2         1 LIV       0.061700
     97 H25          5.2880    -2.4750     1.0360 h1         1 LIV       0.055700
     98 H35          4.7950    -0.3450     2.0670 h1         1 LIV       0.071700
     99 H45          7.7560    -0.1520     2.7490 h1         1 LIV       0.065700
    100 H55          6.0250     1.5270     0.8880 h1         1 LIV       0.065700
    101 H651         7.9380     2.6740     1.9790 h1         1 LIV       0.036200
    102 H652         9.0370     1.4750     1.2950 h1         1 LIV       0.036200
    103 H7           7.4690    -3.1280     0.8960 ho         1 LIV       0.499000
    104 H6           4.8260    -1.9360     3.6220 ho         1 LIV       0.450000
    105 H5           6.2820     0.8280     4.2450 ho         1 LIV       0.522000
    106 H65          8.7810     3.3670    -0.0530 ho         1 LIV       0.502000
    107 H44          5.8760     0.2710    -2.2250 h1         1 LIV       0.072700
@<TRIPOS>BOND
     1     1     2 1   
     2     1     3 1   
     3     1     9 1   
     4     1    53 1   
     5     2    18 1   
     6     3     4 1   
     7     3     5 1   
     8     3    54 1   
     9     4    55 1   
    10     4    56 1   
    11     5     6 1   
    12     5    57 1   
    13     5    58 1   
    14     6     7 1   
    15     6     8 1   
    16     6    59 1   
    17     7    60 1   
    18     8     9 1   
    19     8    10 1   
    20     8    61 1   
    21    10    11 1   
    22    10    62 1   
    23    10    63 1   
    24    11    64 1   
    25    12    13 1   
    26    12    14 1   
    27    12    21 1   
    28    12    65 1   
    29    13    66 1   
    30    13    67 1   
    31    14    15 1   
    32    14    16 1   
    33    14    68 1   
    34    15    69 1   
    35    16    17 1   
    36    16    18 1   
    37    16    70 1   
    38    17    22 1   
    39    18    19 1   
    40    18    71 1   
    41    19    20 1   
    42    19    21 1   
    43    19    72 1   
    44    20    73 1   
    45    20    74 1   
    46    21    75 1   
    47    21    76 1   
    48    22    23 1   
    49    22    27 1   
    50    22    77 1   
    51    23    24 1   
    52    23    25 1   
    53    23    78 1   
    54    24    79 1   
    55    25    26 1   
    56    25    37 1   
    57    25    80 1   
    58    26    27 1   
    59    26    28 1   
    60    26    81 1   
    61    28    29 1   
    62    28    82 1   
    63    28    83 1   
    64    29    84 1   
    65    30    31 1   
    66    30    32 1   
    67    30    38 1   
    68    30   107 1   
    69    31    42 1   
    70    32    33 1   
    71    32    34 1   
    72    32    85 1   
    73    33    86 1   
    74    34    35 1   
    75    34    36 1   
    76    34    87 1   
    77    35    88 1   
    78    35    89 1   
    79    36    37 1   
    80    36    39 1   
    81    36    90 1   
    82    38    39 1   
    83    38    40 1   
    84    38    91 1   
    85    40    41 1   
    86    40    92 1   
    87    40    93 1   
    88    41    94 1   
    89    41    95 1   
    90    42    43 1   
    91    42    51 1   
    92    42    96 1   
    93    43    44 1   
    94    43    48 1   
    95    43    97 1   
    96    44    45 1   
    97    44    49 1   
    98    44    98 1   
    99    45    46 1   
   100    45    50 1   
   101    45    99 1   
   102    46    47 1   
   103    46    51 1   
   104    46   100 1   
   105    47    52 1   
   106    47   101 1   
   107    47   102 1   
   108    48   103 1   
   109    49   104 1   
   110    50   105 1   
   111    52   106 1   
@<TRIPOS>SUBSTRUCTURE
     1 LIV         1 TEMP              0 ****  ****    0 ROOT
