@<TRIPOS>MOLECULE
LIW
   93    98     1     0     0
SMALL
No Charge or Current Charge


@<TRIPOS>ATOM
      1 C            3.2940    -2.4180     2.9010 ca         1 LIW      -0.203000
      2 C1           2.4280    -1.7740     2.0040 ca         1 LIW       0.352000
      3 C2           1.4130    -0.9500     2.5220 ca         1 LIW      -0.203000
      4 C3           1.2580    -0.7870     3.9080 ca         1 LIW      -0.016500
      5 C4           2.1210    -1.4420     4.8140 ca         1 LIW      -0.223600
      6 C5           3.1500    -2.2600     4.2900 ca         1 LIW      -0.016500
      7 N            2.5860    -1.9670     0.6130 nh         1 LIW      -0.788400
      8 C6           1.9080    -1.2560     6.3000 c          1 LIW       0.653700
      9 N1           2.7290    -1.9600     7.1220 ns         1 LIW      -0.588300
     10 S            2.6120    -2.1080     8.7810 sy         1 LIW       1.203300
     11 C7           0.9930    -2.8310     9.0370 ca         1 LIW      -0.387500
     12 C8           2.0890    -0.9550    -0.3740 c6         1 LIW       0.209300
     13 C9           2.7950    -1.0720    -1.7630 c6         1 LIW       0.149800
     14 N2           2.7440    -2.4560    -2.3320 n3         1 LIW      -0.716600
     15 C10          3.3140    -3.4220    -1.3450 c6         1 LIW       0.149800
     16 C11          2.6120    -3.3550     0.0500 c6         1 LIW       0.209300
     17 C12          3.3920    -2.5600    -3.6620 c3         1 LIW       0.209100
     18 O            1.0370    -0.5180     6.7330 o          1 LIW      -0.563100
     19 O1           3.6340    -3.0920     9.1500 o          1 LIW      -0.527000
     20 O2           2.6170    -0.7480     9.3310 o          1 LIW      -0.527000
     21 C13         -0.1110    -1.9990     9.2980 ca         1 LIW       0.133000
     22 C14         -1.3990    -2.5610     9.4240 ca         1 LIW      -0.318200
     23 C15         -1.5700    -3.9440     9.2620 ca         1 LIW       0.465000
     24 C16         -0.4600    -4.7650     9.0360 ca         1 LIW      -0.241000
     25 C17          0.8240    -4.2190     8.9200 ca         1 LIW       0.062000
     26 N3          -2.5460    -1.6600     9.6750 no         1 LIW       0.709200
     27 O3          -2.4750    -0.5040     9.2440 o          1 LIW      -0.417500
     28 O4          -3.4580    -2.0620    10.4090 o          1 LIW      -0.417500
     29 N4          -2.8330    -4.5250     9.2580 nu         1 LIW      -0.941200
     30 C18         -3.5190    -5.0820     8.0790 c3         1 LIW       0.275200
     31 C19         -4.9520    -4.5010     8.0980 c3         1 LIW      -0.107600
     32 C20         -2.7700    -4.6780     6.7690 c3         1 LIW       0.013600
     33 S1          -3.6110    -5.2280     5.2110 ss         1 LIW      -0.165000
     34 C21         -2.6030    -4.5230     3.9080 ca         1 LIW      -0.092000
     35 C22         -1.1990    -4.4610     4.0150 ca         1 LIW      -0.109500
     36 C23         -0.4360    -3.9010     2.9760 ca         1 LIW      -0.099500
     37 C24         -1.0690    -3.3980     1.8270 ca         1 LIW      -0.116000
     38 C25         -2.4690    -3.4650     1.7130 ca         1 LIW      -0.099500
     39 C26         -3.2320    -4.0300     2.7500 ca         1 LIW      -0.109500
     40 C27         -3.5600    -6.6170     8.2500 c3         1 LIW      -0.107600
     41 C28          2.5150     0.3010    -6.1230 ca         1 LIW      -0.102000
     42 C29          1.3220    -0.1900    -6.6770 ca         1 LIW      -0.105000
     43 C30          0.8240    -1.4350    -6.2670 ca         1 LIW      -0.110000
     44 C31          1.5170    -2.1830    -5.3010 ca         1 LIW      -0.092000
     45 C32          2.7180    -1.7030    -4.7380 ca         1 LIW      -0.074300
     46 C33          3.2360    -0.4420    -5.1580 cp         1 LIW      -0.032000
     47 C34          4.4630     1.3350    -3.8520 ca         1 LIW      -0.102000
     48 C35          5.6430     1.8900    -3.3280 ca         1 LIW      -0.110500
     49 C36          6.8770     1.2580    -3.5530 ca         1 LIW      -0.106000
     50 C37          6.9300     0.0730    -4.3070 ca         1 LIW      -0.110500
     51 C38          5.7490    -0.4810    -4.8300 ca         1 LIW      -0.102000
     52 C39          4.4950     0.1350    -4.6010 cp         1 LIW      -0.044000
     53 H            4.0970    -3.0420     2.5210 ha         1 LIW       0.119500
     54 H2           0.7200    -0.4460     1.8560 ha         1 LIW       0.119500
     55 H3           0.4530    -0.1530     4.2740 ha         1 LIW       0.119500
     56 H5           3.8490    -2.7800     4.9400 ha         1 LIW       0.119500
     57 HN1          3.4070    -2.5930     6.7410 hn         1 LIW       0.344500
     58 H81          2.2540     0.0630     0.0090 h1         1 LIW       0.048700
     59 H82          1.0060    -1.0800    -0.5200 h1         1 LIW       0.048700
     60 H91          2.3180    -0.3550    -2.4460 h1         1 LIW       0.047200
     61 H92          3.8420    -0.7520    -1.6470 h1         1 LIW       0.047200
     62 H101         4.3870    -3.2230    -1.2000 h1         1 LIW       0.047200
     63 H102         3.2290    -4.4500    -1.7260 h1         1 LIW       0.047200
     64 H111         1.5820    -3.7270    -0.0600 h1         1 LIW       0.048700
     65 H112         3.1310    -4.0460     0.7290 h1         1 LIW       0.048700
     66 H121         3.3600    -3.6040    -4.0020 h1         1 LIW       0.046700
     67 H122         4.4540    -2.3020    -3.5770 h1         1 LIW       0.046700
     68 H13          0.0270    -0.9200     9.3870 ha         1 LIW       0.180000
     69 H16         -0.5960    -5.8350     8.9250 ha         1 LIW       0.130000
     70 H17          1.6710    -4.8740     8.7150 ha         1 LIW       0.130000
     71 HN4         -3.4600    -4.0230     9.8910 hn         1 LIW       0.531000
     72 H191        -5.5640    -4.9270     7.2940 hc         1 LIW       0.056367
     73 H192        -5.4560    -4.7250     9.0460 hc         1 LIW       0.056367
     74 H193        -4.9350    -3.4120     7.9680 hc         1 LIW       0.056367
     75 H201        -2.6690    -3.5860     6.7300 h1         1 LIW       0.076200
     76 H202        -1.7670    -5.1150     6.7810 h1         1 LIW       0.076200
     77 H22         -0.6890    -4.8540     4.8890 ha         1 LIW       0.118000
     78 H23          0.6470    -3.8590     3.0620 ha         1 LIW       0.114000
     79 H24         -0.4780    -2.9600     1.0260 ha         1 LIW       0.134000
     80 H25         -2.9610    -3.0800     0.8230 ha         1 LIW       0.114000
     81 H26         -4.3150    -4.0790     2.6570 ha         1 LIW       0.118000
     82 H271        -2.5500    -7.0420     8.2340 hc         1 LIW       0.056367
     83 H272        -4.1370    -7.0880     7.4460 hc         1 LIW       0.056367
     84 H273        -4.0290    -6.8910     9.2030 hc         1 LIW       0.056367
     85 H29          0.7850     0.3940    -7.4220 ha         1 LIW       0.116000
     86 H30         -0.1020    -1.8180    -6.6900 ha         1 LIW       0.115000
     87 H31          1.1130    -3.1400    -4.9770 ha         1 LIW       0.116000
     88 H34          3.5120     1.8310    -3.6740 ha         1 LIW       0.115500
     89 H35          5.6010     2.8100    -2.7490 ha         1 LIW       0.115000
     90 H36          7.7910     1.6870    -3.1480 ha         1 LIW       0.115000
     91 H37          7.8860    -0.4140    -4.4880 ha         1 LIW       0.115000
     92 H38          5.8010    -1.3930    -5.4190 ha         1 LIW       0.115500
     93 H28          2.8940     1.2670    -6.4480 ha         1 LIW       0.118000
@<TRIPOS>BOND
     1     1     2 ar  
     2     1     6 ar  
     3     1    53 1   
     4     2     3 ar  
     5     2     7 1   
     6     3     4 ar  
     7     3    54 1   
     8     4     5 ar  
     9     4    55 1   
    10     5     6 ar  
    11     5     8 1   
    12     6    56 1   
    13     7    12 1   
    14     7    16 1   
    15     8     9 1   
    16     8    18 2   
    17     9    10 1   
    18     9    57 1   
    19    10    11 1   
    20    10    19 2   
    21    10    20 2   
    22    11    21 ar  
    23    11    25 ar  
    24    12    13 1   
    25    12    58 1   
    26    12    59 1   
    27    13    14 1   
    28    13    60 1   
    29    13    61 1   
    30    14    15 1   
    31    14    17 1   
    32    15    16 1   
    33    15    62 1   
    34    15    63 1   
    35    16    64 1   
    36    16    65 1   
    37    17    45 1   
    38    17    66 1   
    39    17    67 1   
    40    21    22 ar  
    41    21    68 1   
    42    22    23 ar  
    43    22    26 1   
    44    23    24 ar  
    45    23    29 1   
    46    24    25 ar  
    47    24    69 1   
    48    25    70 1   
    49    26    27 1   
    50    26    28 1   
    51    29    30 1   
    52    29    71 1   
    53    30    31 1   
    54    30    32 1   
    55    30    40 1   
    56    31    72 1   
    57    31    73 1   
    58    31    74 1   
    59    32    33 1   
    60    32    75 1   
    61    32    76 1   
    62    33    34 1   
    63    34    35 ar  
    64    34    39 ar  
    65    35    36 ar  
    66    35    77 1   
    67    36    37 ar  
    68    36    78 1   
    69    37    38 ar  
    70    37    79 1   
    71    38    39 ar  
    72    38    80 1   
    73    39    81 1   
    74    40    82 1   
    75    40    83 1   
    76    40    84 1   
    77    41    42 ar  
    78    41    46 ar  
    79    41    93 1   
    80    42    43 ar  
    81    42    85 1   
    82    43    44 ar  
    83    43    86 1   
    84    44    45 ar  
    85    44    87 1   
    86    45    46 ar  
    87    46    52 1   
    88    47    48 ar  
    89    47    52 ar  
    90    47    88 1   
    91    48    49 ar  
    92    48    89 1   
    93    49    50 ar  
    94    49    90 1   
    95    50    51 ar  
    96    50    91 1   
    97    51    52 ar  
    98    51    92 1   
@<TRIPOS>SUBSTRUCTURE
     1 LIW         1 TEMP              0 ****  ****    0 ROOT
