@<TRIPOS>MOLECULE
LIW
   93    98     1     0     0
SMALL
abcg2


@<TRIPOS>ATOM
      1 C            3.7690    -3.0300     3.6880 ca         1 LIW      -0.203000
      2 C1           3.4860    -1.9180     2.8690 ca         1 LIW       0.352000
      3 C2           3.0110    -0.7580     3.5200 ca         1 LIW      -0.203000
      4 C3           2.8090    -0.7330     4.8810 ca         1 LIW      -0.016500
      5 C4           3.0760    -1.8450     5.6840 ca         1 LIW      -0.223600
      6 C5           3.5690    -2.9860     5.0510 ca         1 LIW      -0.016500
      7 N            3.6360    -1.9680     1.5060 nh         1 LIW      -0.788400
      8 C6           2.7250    -1.7790     7.1100 c          1 LIW       0.653700
      9 N1           3.1780    -2.8130     7.9090 ns         1 LIW      -0.588300
     10 S            2.5060    -3.1460     9.4090 sy         1 LIW       1.203300
     11 C7           0.8080    -3.3320     9.0200 ca         1 LIW      -0.387500
     12 C8           2.9480    -0.9560     0.7140 c6         1 LIW       0.209300
     13 C9           3.2570    -1.0440    -0.7650 c6         1 LIW       0.149800
     14 N2           3.0840    -2.3940    -1.2500 n3         1 LIW      -0.716600
     15 C10          4.0690    -3.2210    -0.5920 c6         1 LIW       0.149800
     16 C11          3.8030    -3.2810     0.8980 c6         1 LIW       0.209300
     17 C12          3.1650    -2.4720    -2.7000 c3         1 LIW       0.209100
     18 O            2.0420    -0.8970     7.5900 o          1 LIW      -0.563100
     19 O1           3.0730    -4.4360     9.7580 o          1 LIW      -0.527000
     20 O2           2.6780    -2.0190    10.2990 o          1 LIW      -0.527000
     21 C13         -0.1080    -2.3940     9.4170 ca         1 LIW       0.133000
     22 C14         -1.4400    -2.5060     9.0240 ca         1 LIW      -0.318200
     23 C15         -1.8780    -3.5520     8.1540 ca         1 LIW       0.465000
     24 C16         -0.8930    -4.5230     7.8300 ca         1 LIW      -0.241000
     25 C17          0.4030    -4.4230     8.2420 ca         1 LIW       0.062000
     26 N3          -2.3220    -1.4760     9.5010 no         1 LIW       0.709200
     27 O3          -1.8650    -0.5810    10.1730 o          1 LIW      -0.417500
     28 O4          -3.5060    -1.5370     9.2200 o          1 LIW      -0.417500
     29 N4          -3.1210    -3.6300     7.6610 nu         1 LIW      -0.941200
     30 C18         -3.6120    -4.3720     6.4860 c3         1 LIW       0.275200
     31 C19         -5.0210    -3.8300     6.2420 c3         1 LIW      -0.107600
     32 C20         -2.7020    -4.0060     5.2990 c3         1 LIW       0.013600
     33 S1          -3.2390    -4.7830     3.7530 ss         1 LIW      -0.165000
     34 C21         -1.9840    -4.2610     2.6280 ca         1 LIW      -0.092000
     35 C22         -0.9430    -3.4000     2.9660 ca         1 LIW      -0.109500
     36 C23          0.0030    -3.0480     2.0130 ca         1 LIW      -0.099500
     37 C24         -0.0720    -3.5330     0.7170 ca         1 LIW      -0.116000
     38 C25         -1.1160    -4.3870     0.3790 ca         1 LIW      -0.099500
     39 C26         -2.0630    -4.7520     1.3220 ca         1 LIW      -0.109500
     40 C27         -3.7060    -5.8770     6.7430 c3         1 LIW      -0.107600
     41 C28          0.6970    -0.2010    -4.5380 ca         1 LIW      -0.102000
     42 C29         -0.4950    -0.8610    -4.2910 ca         1 LIW      -0.105000
     43 C30         -0.4850    -2.0450    -3.5640 ca         1 LIW      -0.110000
     44 C31          0.7160    -2.5420    -3.0880 ca         1 LIW      -0.092000
     45 C32          1.9250    -1.8880    -3.3280 ca         1 LIW      -0.074300
     46 C33          1.9150    -0.7040    -4.0710 cp         1 LIW      -0.032000
     47 C34          3.2990     1.3600    -3.8790 ca         1 LIW      -0.102000
     48 C35          4.4370     2.1010    -4.1730 ca         1 LIW      -0.110500
     49 C36          5.4380     1.5570    -4.9660 ca         1 LIW      -0.106000
     50 C37          5.2940     0.2690    -5.4660 ca         1 LIW      -0.110500
     51 C38          4.1580    -0.4710    -5.1700 ca         1 LIW      -0.102000
     52 C39          3.1490     0.0640    -4.3700 cp         1 LIW      -0.044000
     53 H            4.1240    -3.9590     3.2700 ha         1 LIW       0.119500
     54 H2           2.7740     0.1350     2.9630 ha         1 LIW       0.119500
     55 H3           2.4220     0.1730     5.3280 ha         1 LIW       0.119500
     56 H5           3.7770    -3.8940     5.6030 ha         1 LIW       0.119500
     57 HN1          3.8120    -3.5200     7.5590 hn         1 LIW       0.344500
     58 H81          3.2500     0.0360     1.0460 h1         1 LIW       0.048700
     59 H82          1.8620    -1.0260     0.8520 h1         1 LIW       0.048700
     60 H91          2.5740    -0.3640    -1.2790 h1         1 LIW       0.047200
     61 H92          4.2790    -0.6780    -0.9620 h1         1 LIW       0.047200
     62 H101         5.0940    -2.8600    -0.7780 h1         1 LIW       0.047200
     63 H102         4.0120    -4.2420    -0.9740 h1         1 LIW       0.047200
     64 H111         2.9170    -3.9040     1.0770 h1         1 LIW       0.048700
     65 H112         4.6540    -3.7870     1.3530 h1         1 LIW       0.048700
     66 H121         3.2370    -3.5280    -2.9750 h1         1 LIW       0.046700
     67 H122         4.0750    -1.9890    -3.0790 h1         1 LIW       0.046700
     68 H13          0.1980    -1.5570    10.0270 ha         1 LIW       0.180000
     69 H16         -1.1690    -5.3850     7.2480 ha         1 LIW       0.130000
     70 H17          1.1030    -5.1960     7.9540 ha         1 LIW       0.130000
     71 HN4         -3.7470    -2.9130     7.9950 hn         1 LIW       0.531000
     72 H191        -5.4950    -4.3410     5.4050 hc         1 LIW       0.056367
     73 H192        -5.6490    -3.9830     7.1200 hc         1 LIW       0.056367
     74 H193        -5.0000    -2.7630     6.0130 hc         1 LIW       0.056367
     75 H201        -2.7100    -2.9210     5.1790 h1         1 LIW       0.076200
     76 H202        -1.6750    -4.3180     5.4840 h1         1 LIW       0.076200
     77 H22         -0.8520    -2.9860     3.9590 ha         1 LIW       0.118000
     78 H23          0.8040    -2.3820     2.3050 ha         1 LIW       0.114000
     79 H24          0.6750    -3.2500    -0.0160 ha         1 LIW       0.134000
     80 H25         -1.1950    -4.7780    -0.6280 ha         1 LIW       0.114000
     81 H26         -2.8680    -5.4210     1.0410 ha         1 LIW       0.118000
     82 H271        -2.7420    -6.3770     6.8080 hc         1 LIW       0.056367
     83 H272        -4.2600    -6.3620     5.9400 hc         1 LIW       0.056367
     84 H273        -4.2430    -6.0600     7.6730 hc         1 LIW       0.056367
     85 H29         -1.4260    -0.4560    -4.6670 ha         1 LIW       0.116000
     86 H30         -1.4080    -2.5750    -3.3690 ha         1 LIW       0.115000
     87 H31          0.7250    -3.4570    -2.5070 ha         1 LIW       0.116000
     88 H34          2.5240     1.7910    -3.2580 ha         1 LIW       0.115500
     89 H35          4.5410     3.1040    -3.7790 ha         1 LIW       0.115000
     90 H36          6.3230     2.1350    -5.1970 ha         1 LIW       0.115000
     91 H37          6.0660    -0.1610    -6.0910 ha         1 LIW       0.115000
     92 H38          4.0470    -1.4700    -5.5720 ha         1 LIW       0.115500
     93 H28          0.6920     0.7180    -5.1120 ha         1 LIW       0.118000
@<TRIPOS>BOND
     1     1     2 ar  
     2     1     6 ar  
     3     1    53 1   
     4     2     3 ar  
     5     2     7 1   
     6     3     4 ar  
     7     3    54 1   
     8     4     5 ar  
     9     4    55 1   
    10     5     6 ar  
    11     5     8 1   
    12     6    56 1   
    13     7    12 1   
    14     7    16 1   
    15     8     9 1   
    16     8    18 2   
    17     9    10 1   
    18     9    57 1   
    19    10    11 1   
    20    10    19 2   
    21    10    20 2   
    22    11    21 ar  
    23    11    25 ar  
    24    12    13 1   
    25    12    58 1   
    26    12    59 1   
    27    13    14 1   
    28    13    60 1   
    29    13    61 1   
    30    14    15 1   
    31    14    17 1   
    32    15    16 1   
    33    15    62 1   
    34    15    63 1   
    35    16    64 1   
    36    16    65 1   
    37    17    45 1   
    38    17    66 1   
    39    17    67 1   
    40    21    22 ar  
    41    21    68 1   
    42    22    23 ar  
    43    22    26 1   
    44    23    24 ar  
    45    23    29 1   
    46    24    25 ar  
    47    24    69 1   
    48    25    70 1   
    49    26    27 1   
    50    26    28 1   
    51    29    30 1   
    52    29    71 1   
    53    30    31 1   
    54    30    32 1   
    55    30    40 1   
    56    31    72 1   
    57    31    73 1   
    58    31    74 1   
    59    32    33 1   
    60    32    75 1   
    61    32    76 1   
    62    33    34 1   
    63    34    35 ar  
    64    34    39 ar  
    65    35    36 ar  
    66    35    77 1   
    67    36    37 ar  
    68    36    78 1   
    69    37    38 ar  
    70    37    79 1   
    71    38    39 ar  
    72    38    80 1   
    73    39    81 1   
    74    40    82 1   
    75    40    83 1   
    76    40    84 1   
    77    41    42 ar  
    78    41    46 ar  
    79    41    93 1   
    80    42    43 ar  
    81    42    85 1   
    82    43    44 ar  
    83    43    86 1   
    84    44    45 ar  
    85    44    87 1   
    86    45    46 ar  
    87    46    52 1   
    88    47    48 ar  
    89    47    52 ar  
    90    47    88 1   
    91    48    49 ar  
    92    48    89 1   
    93    49    50 ar  
    94    49    90 1   
    95    50    51 ar  
    96    50    91 1   
    97    51    52 ar  
    98    51    92 1   
@<TRIPOS>SUBSTRUCTURE
     1 LIW         1 TEMP              0 ****  ****    0 ROOT
