@<TRIPOS>MOLECULE
LIX
   82    86     1     0     0
SMALL
No Charge or Current Charge


@<TRIPOS>ATOM
      1 N1           3.6300     2.6340     1.3670 nb         1 LIX      -0.323000
      2 N3           3.4030     1.2050     3.1930 nu         1 LIX      -0.941100
      3 C4           1.5760     1.3890     1.6080 cp         1 LIX      -0.281000
      4 C5          -0.2540     1.7130    -0.1910 c3         1 LIX      -0.136700
      5 C6          -0.2410     0.4740    -1.1080 c3         1 LIX      -0.081100
      6 C7          -0.1810     0.8250     3.3250 ca         1 LIX      -0.108000
      7 C8          -0.8910    -0.1140     4.0880 ca         1 LIX      -0.110000
      8 C10          0.1680    -1.9410     2.8400 ca         1 LIX      -0.082000
      9 C15         -0.1900    -4.2750     3.5920 c          1 LIX       0.545000
     10 C20          4.6550     1.6110     3.8820 c3         1 LIX       0.217800
     11 C21          4.9840     0.7030     5.0990 c3         1 LIX       0.184800
     12 C24          3.0820    -6.3290     4.8260 ca         1 LIX      -0.085000
     13 C26          4.9760    -5.6950     3.4240 ca         1 LIX       0.001000
     14 C28          3.7750    -7.7720     2.9910 ca         1 LIX      -0.088000
     15 O5           4.4340    -1.6760     6.8430 o          1 LIX      -0.534000
     16 O4           6.9360    -1.6960     6.2330 o          1 LIX      -0.534000
     17 C30          5.3000    -3.3260     4.9200 ca         1 LIX      -0.309500
     18 C29          4.2720    -4.2350     5.2500 ca         1 LIX       0.016000
     19 C25          4.1090    -5.4180     4.5040 ca         1 LIX      -0.069000
     20 C31          6.1660    -3.6090     3.8430 ca         1 LIX      -0.043000
     21 C32          6.0000    -4.7880     3.0980 ca         1 LIX      -0.113000
     22 C27          4.8060    -6.8730     2.6720 ca         1 LIX      -0.114000
     23 C23          2.9150    -7.5000     4.0680 ca         1 LIX      -0.114000
     24 N6           5.2650    -0.6880     4.6790 n7         1 LIX      -0.861300
     25 C1           2.8710     1.7540     2.0350 ca         1 LIX       0.431900
     26 C3           1.1140     2.0060     0.4190 ca         1 LIX       0.210300
     27 N2           1.8780     2.8890    -0.2540 nb         1 LIX      -0.284000
     28 C2           3.0840     3.1470     0.2630 ca         1 LIX       0.413900
     29 N4           3.8460     4.0340    -0.4160 nv         1 LIX      -1.050900
     30 C12          0.7590     0.4000     2.3620 cp         1 LIX      -0.012000
     31 C11          0.9410    -0.9830     2.1470 ca         1 LIX      -0.121000
     32 N5           0.3930    -3.3630     2.6810 n          1 LIX      -0.209400
     33 C16          0.8960    -3.8740     1.3790 c3         1 LIX       0.098000
     34 C18          2.9300    -4.5880    -0.0000 c3         1 LIX       0.160600
     35 O1           4.3510    -4.7590     0.0980 os         1 LIX      -0.459000
     36 C19          4.9870    -5.1870    -1.1170 c3         1 LIX       0.147900
     37 C14         -0.6470    -3.6440     4.9450 c6         1 LIX       0.114000
     38 O2          -1.3180    -2.3860     4.7090 os         1 LIX      -0.333100
     39 C9          -0.6860    -1.4860     3.8780 ca         1 LIX       0.088100
     40 HN3          2.7330     0.6470     3.7190 hn         1 LIX       0.492000
     41 H51         -0.9970     1.5630     0.6010 hc         1 LIX       0.061200
     42 H52         -0.6040     2.5760    -0.7700 hc         1 LIX       0.061200
     43 H61          0.4660     0.6120    -1.9350 hc         1 LIX       0.036367
     44 H62         -1.2370     0.3020    -1.5330 hc         1 LIX       0.036367
     45 H63          0.0520    -0.4230    -0.5490 hc         1 LIX       0.036367
     46 H7          -0.3270     1.8880     3.5030 ha         1 LIX       0.125000
     47 H8          -1.5750     0.2190     4.8650 ha         1 LIX       0.133000
     48 H131         1.3490    -2.7630     5.3400 hc         1 LIX       0.056033
     49 H132         0.2870    -2.7940     6.7550 hc         1 LIX       0.056033
     50 H133         1.0540    -4.2820     6.1920 hc         1 LIX       0.056033
     51 H171         2.9560    -3.2750     1.7210 hc         1 LIX       0.059200
     52 H172         2.6100    -4.9620     2.1040 hc         1 LIX       0.059200
     53 H201         5.5030     1.5730     3.1840 h1         1 LIX       0.071700
     54 H202         4.5670     2.6490     4.2340 h1         1 LIX       0.071700
     55 H211         5.8570     1.1230     5.6180 h1         1 LIX       0.054700
     56 H212         4.1380     0.7430     5.7990 h1         1 LIX       0.054700
     57 H221        -1.1980    -5.5160     5.9750 hc         1 LIX       0.056033
     58 H222        -1.9910    -4.0800     6.6380 hc         1 LIX       0.056033
     59 H223        -2.5390    -4.7620     5.0980 hc         1 LIX       0.056033
     60 H28          3.6430    -8.6790     2.4050 ha         1 LIX       0.117000
     61 H29          3.6060    -4.0310     6.0860 ha         1 LIX       0.135000
     62 H31          6.9630    -2.9140     3.5800 ha         1 LIX       0.153000
     63 H32          6.6670    -4.9940     2.2640 ha         1 LIX       0.123000
     64 H27          5.4660    -7.0870     1.8350 ha         1 LIX       0.120000
     65 H23          2.1180    -8.1980     4.3170 ha         1 LIX       0.118000
     66 HN6          4.4680    -1.0710     4.1780 hn         1 LIX       0.491000
     67 HN41         3.5740     4.2720    -1.3660 hn         1 LIX       0.490000
     68 HN42         4.8370     4.0890    -0.1950 hn         1 LIX       0.490000
     69 H11          1.6840    -1.2900     1.4170 ha         1 LIX       0.127000
     70 H161         0.6690    -3.1390     0.5970 h1         1 LIX       0.066700
     71 H162         0.3580    -4.7890     1.0990 h1         1 LIX       0.066700
     72 H181         2.4440    -5.5250    -0.3040 h1         1 LIX       0.021700
     73 H182         2.6860    -3.8130    -0.7390 h1         1 LIX       0.021700
     74 H191         4.5910    -6.1570    -1.4440 h1         1 LIX       0.033367
     75 H192         6.0690    -5.2950    -0.9630 h1         1 LIX       0.033367
     76 H193         4.8270    -4.4560    -1.9200 h1         1 LIX       0.033367
     77 O3          -0.3880    -5.4550     3.3140 o          1 LIX      -0.528000
     78 C13          0.5830    -3.3510     5.8590 c3         1 LIX      -0.096600
     79 C17          2.4090    -4.1630     1.3840 c3         1 LIX      -0.110400
     80 C22         -1.6520    -4.5540     5.7090 c3         1 LIX      -0.096600
     81 S1           5.5220    -1.8210     5.8720 sy         1 LIX       1.151600
     82 H24          2.4140    -6.1340     5.6610 ha         1 LIX       0.118000
@<TRIPOS>BOND
     1     1    25 ar  
     2     1    28 ar  
     3     2    10 1   
     4     2    25 1   
     5     2    40 1   
     6     3    25 ar  
     7     3    26 ar  
     8     3    30 1   
     9     4     5 1   
    10     4    26 1   
    11     4    41 1   
    12     4    42 1   
    13     5    43 1   
    14     5    44 1   
    15     5    45 1   
    16     6     7 ar  
    17     6    30 ar  
    18     6    46 1   
    19     7    39 ar  
    20     7    47 1   
    21     8    31 ar  
    22     8    32 1   
    23     8    39 ar  
    24     9    32 1   
    25     9    37 1   
    26     9    77 2   
    27    10    11 1   
    28    10    53 1   
    29    10    54 1   
    30    11    24 1   
    31    11    55 1   
    32    11    56 1   
    33    12    19 ar  
    34    12    23 ar  
    35    12    82 1   
    36    13    19 ar  
    37    13    21 ar  
    38    13    22 ar  
    39    14    22 ar  
    40    14    23 ar  
    41    14    60 1   
    42    15    81 2   
    43    16    81 2   
    44    17    18 ar  
    45    17    20 ar  
    46    17    81 1   
    47    18    19 ar  
    48    18    61 1   
    49    20    21 ar  
    50    20    62 1   
    51    21    63 1   
    52    22    64 1   
    53    23    65 1   
    54    24    66 1   
    55    24    81 1   
    56    26    27 ar  
    57    27    28 ar  
    58    28    29 1   
    59    29    67 1   
    60    29    68 1   
    61    30    31 ar  
    62    31    69 1   
    63    32    33 1   
    64    33    70 1   
    65    33    71 1   
    66    33    79 1   
    67    34    35 1   
    68    34    72 1   
    69    34    73 1   
    70    34    79 1   
    71    35    36 1   
    72    36    74 1   
    73    36    75 1   
    74    36    76 1   
    75    37    38 1   
    76    37    78 1   
    77    37    80 1   
    78    38    39 1   
    79    48    78 1   
    80    49    78 1   
    81    50    78 1   
    82    51    79 1   
    83    52    79 1   
    84    57    80 1   
    85    58    80 1   
    86    59    80 1   
@<TRIPOS>SUBSTRUCTURE
     1 LIX         1 TEMP              0 ****  ****    0 ROOT
