@<TRIPOS>MOLECULE
LIX
   82    86     1     0     0
SMALL
abcg2


@<TRIPOS>ATOM
      1 N1           3.4870     2.4300     2.1180 nb         1 LIX      -0.323000
      2 N3           3.0360     0.7630     3.6370 nu         1 LIX      -0.941100
      3 C4           1.5030     1.1230     1.8280 cp         1 LIX      -0.281000
      4 C5           0.0530     1.5930    -0.1790 c3         1 LIX      -0.136700
      5 C6           0.4420     0.8060    -1.4300 c3         1 LIX      -0.081100
      6 C7          -0.3120     0.1860     3.2810 ca         1 LIX      -0.108000
      7 C8          -1.0800    -0.8850     3.7180 ca         1 LIX      -0.110000
      8 C10          0.0250    -2.3300     2.1330 ca         1 LIX      -0.082000
      9 C15         -0.3830    -4.6980     2.1900 c          1 LIX       0.545000
     10 C20          4.1310     1.1070     4.5130 c3         1 LIX       0.217800
     11 C21          4.9830    -0.1080     4.8320 c3         1 LIX       0.184800
     12 C24          4.7020    -4.8270     7.5390 ca         1 LIX      -0.085000
     13 C26          4.0050    -5.3370     5.2510 ca         1 LIX       0.001000
     14 C28          3.1450    -6.6160     7.1100 ca         1 LIX      -0.088000
     15 O5           7.5870    -1.5860     4.6620 o          1 LIX      -0.534000
     16 O4           6.9550    -2.2280     2.3070 o          1 LIX      -0.534000
     17 C30          5.6250    -3.2820     4.2980 ca         1 LIX      -0.309500
     18 C29          5.5860    -3.5180     5.6450 ca         1 LIX       0.016000
     19 C25          4.7700    -4.5530     6.1530 ca         1 LIX      -0.069000
     20 C31          4.8750    -4.0580     3.3870 ca         1 LIX      -0.043000
     21 C32          4.0830    -5.0620     3.8650 ca         1 LIX      -0.113000
     22 C27          3.1940    -6.3740     5.7640 ca         1 LIX      -0.114000
     23 C23          3.9050    -5.8350     8.0060 ca         1 LIX      -0.114000
     24 N6           5.5460    -0.6410     3.5970 n7         1 LIX      -0.861300
     25 C1           2.6850     1.4590     2.5300 ca         1 LIX       0.431900
     26 C3           1.2450     1.8680     0.6900 ca         1 LIX       0.210300
     27 N2           2.0520     2.8480     0.2730 nb         1 LIX      -0.284000
     28 C2           3.1360     3.0790     1.0080 ca         1 LIX       0.413900
     29 N4           3.9420     4.0940     0.6190 nv         1 LIX      -1.050900
     30 C12          0.6430     0.0080     2.2840 cp         1 LIX      -0.012000
     31 C11          0.8090    -1.2580     1.7270 ca         1 LIX      -0.121000
     32 N5           0.1120    -3.6020     1.5510 n          1 LIX      -0.209400
     33 C16          0.8900    -3.7860     0.3340 c3         1 LIX       0.098000
     34 C18          3.2520    -3.7990    -0.5560 c3         1 LIX       0.160600
     35 O1           4.5750    -4.1040    -0.1960 os         1 LIX      -0.459000
     36 C19          5.5150    -3.7100    -1.1620 c3         1 LIX       0.147900
     37 C14         -1.0250    -4.4410     3.5530 c6         1 LIX       0.114000
     38 O2          -1.6790    -3.1700     3.5480 os         1 LIX      -0.333100
     39 C9          -0.9140    -2.1330     3.1460 ca         1 LIX       0.088100
     40 HN3          2.3400     0.1380     4.0150 hn         1 LIX       0.492000
     41 H51         -0.7090     1.0480     0.3780 hc         1 LIX       0.061200
     42 H52         -0.3850     2.5490    -0.4760 hc         1 LIX       0.061200
     43 H61          1.1990     1.3360    -2.0080 hc         1 LIX       0.036367
     44 H62         -0.4260     0.6510    -2.0720 hc         1 LIX       0.036367
     45 H63          0.8430    -0.1750    -1.1730 hc         1 LIX       0.036367
     46 H7          -0.4530     1.1630     3.7260 ha         1 LIX       0.125000
     47 H8          -1.8180    -0.7550     4.4980 ha         1 LIX       0.133000
     48 H131         0.8550    -3.7440     4.4490 hc         1 LIX       0.056033
     49 H132        -0.3590    -4.3040     5.6040 hc         1 LIX       0.056033
     50 H133         0.5400    -5.4670     4.6320 hc         1 LIX       0.056033
     51 H171         2.6830    -3.4010     1.4620 hc         1 LIX       0.059200
     52 H172         2.4820    -5.0790     0.9860 hc         1 LIX       0.059200
     53 H201         4.7340     1.8710     4.0300 h1         1 LIX       0.071700
     54 H202         3.7590     1.5210     5.4540 h1         1 LIX       0.071700
     55 H211         5.7930     0.2000     5.4910 h1         1 LIX       0.054700
     56 H212         4.3830    -0.8540     5.3680 h1         1 LIX       0.054700
     57 H221        -1.6850    -6.4630     3.9040 hc         1 LIX       0.056033
     58 H222        -2.5730    -5.2380     4.8020 hc         1 LIX       0.056033
     59 H223        -2.8800    -5.4630     3.0730 hc         1 LIX       0.056033
     60 H28          2.5220    -7.4130     7.4950 ha         1 LIX       0.117000
     61 H29          6.1760    -2.9290     6.3360 ha         1 LIX       0.135000
     62 H31          4.9410    -3.8770     2.3210 ha         1 LIX       0.153000
     63 H32          3.5060    -5.6690     3.1780 ha         1 LIX       0.123000
     64 H27          2.6130    -6.9770     5.0770 ha         1 LIX       0.120000
     65 H23          3.8570    -6.0420     9.0670 ha         1 LIX       0.118000
     66 HN6          4.8650    -0.7390     2.8490 hn         1 LIX       0.491000
     67 HN41         3.8380     4.4430    -0.3180 hn         1 LIX       0.490000
     68 HN42         4.8690     4.1360     1.0070 hn         1 LIX       0.490000
     69 H11          1.5630    -1.3850     0.9620 ha         1 LIX       0.127000
     70 H161         0.7670    -2.8940    -0.2820 h1         1 LIX       0.066700
     71 H162         0.4580    -4.6090    -0.2320 h1         1 LIX       0.066700
     72 H181         2.9280    -4.4050    -1.4140 h1         1 LIX       0.021700
     73 H182         3.1650    -2.7460    -0.8650 h1         1 LIX       0.021700
     74 H191         5.3480    -4.2050    -2.1260 h1         1 LIX       0.033367
     75 H192         6.5040    -3.9860    -0.7990 h1         1 LIX       0.033367
     76 H193         5.4980    -2.6270    -1.3320 h1         1 LIX       0.033367
     77 O3          -0.2760    -5.8210     1.7400 o          1 LIX      -0.528000
     78 C13          0.0710    -4.4840     4.6180 c3         1 LIX      -0.096600
     79 C17          2.3600    -4.0500     0.6430 c3         1 LIX      -0.110400
     80 C22         -2.1080    -5.4630     3.8420 c3         1 LIX      -0.096600
     81 S1           6.5740    -1.9230     3.6750 sy         1 LIX       1.151600
     82 H24          5.2900    -4.2280     8.2240 ha         1 LIX       0.118000
@<TRIPOS>BOND
     1     1    25 ar  
     2     1    28 ar  
     3     2    10 1   
     4     2    25 1   
     5     2    40 1   
     6     3    25 ar  
     7     3    26 ar  
     8     3    30 1   
     9     4     5 1   
    10     4    26 1   
    11     4    41 1   
    12     4    42 1   
    13     5    43 1   
    14     5    44 1   
    15     5    45 1   
    16     6     7 ar  
    17     6    30 ar  
    18     6    46 1   
    19     7    39 ar  
    20     7    47 1   
    21     8    31 ar  
    22     8    32 1   
    23     8    39 ar  
    24     9    32 1   
    25     9    37 1   
    26     9    77 2   
    27    10    11 1   
    28    10    53 1   
    29    10    54 1   
    30    11    24 1   
    31    11    55 1   
    32    11    56 1   
    33    12    19 ar  
    34    12    23 ar  
    35    12    82 1   
    36    13    19 ar  
    37    13    21 ar  
    38    13    22 ar  
    39    14    22 ar  
    40    14    23 ar  
    41    14    60 1   
    42    15    81 2   
    43    16    81 2   
    44    17    18 ar  
    45    17    20 ar  
    46    17    81 1   
    47    18    19 ar  
    48    18    61 1   
    49    20    21 ar  
    50    20    62 1   
    51    21    63 1   
    52    22    64 1   
    53    23    65 1   
    54    24    66 1   
    55    24    81 1   
    56    26    27 ar  
    57    27    28 ar  
    58    28    29 1   
    59    29    67 1   
    60    29    68 1   
    61    30    31 ar  
    62    31    69 1   
    63    32    33 1   
    64    33    70 1   
    65    33    71 1   
    66    33    79 1   
    67    34    35 1   
    68    34    72 1   
    69    34    73 1   
    70    34    79 1   
    71    35    36 1   
    72    36    74 1   
    73    36    75 1   
    74    36    76 1   
    75    37    38 1   
    76    37    78 1   
    77    37    80 1   
    78    38    39 1   
    79    48    78 1   
    80    49    78 1   
    81    50    78 1   
    82    51    79 1   
    83    52    79 1   
    84    57    80 1   
    85    58    80 1   
    86    59    80 1   
@<TRIPOS>SUBSTRUCTURE
     1 LIX         1 TEMP              0 ****  ****    0 ROOT
