@<TRIPOS>MOLECULE
LIY
   62    65     1     0     0
SMALL
abcg2


@<TRIPOS>ATOM
      1 N1          -1.2040    -1.5270     1.7980 nb         1 LIY      -0.330000
      2 N3           0.2770     0.0980     2.4130 nv         1 LIY      -1.065900
      3 C4          -0.1230    -0.2630     0.0690 cp         1 LIY      -0.271000
      4 C6          -0.7200    -0.7870    -2.3280 c3         1 LIY      -0.134700
      5 C7           2.2040     0.5840    -0.2650 ca         1 LIY      -0.168000
      6 C8           3.0620     1.6050    -0.6500 ca         1 LIY      -0.071000
      7 C10          1.2100     3.0690    -1.1520 ca         1 LIY       0.345000
      8 C13          3.5670     3.8950    -1.5380 c6         1 LIY      -0.022100
      9 C15          1.5880     5.2930    -2.1350 c6         1 LIY       0.291800
     10 C17         -1.4400     4.8870    -0.4800 c3         1 LIY      -0.100400
     11 C20         -1.9050    -0.0010    -2.8840 c3         1 LIY      -0.081100
     12 C21          1.7550     5.1970    -3.6410 ca         1 LIY      -0.110300
     13 C22          2.2260     6.3060    -4.3410 ca         1 LIY      -0.102000
     14 C24          2.1290     5.0890    -6.4140 ca         1 LIY      -0.109000
     15 C26          1.4660     4.0360    -4.3500 ca         1 LIY      -0.102000
     16 C1          -0.3480    -0.5790     1.4290 ca         1 LIY       0.423900
     17 C3          -0.8440    -1.0080    -0.8480 ca         1 LIY       0.204300
     18 N2          -1.7080    -1.9590    -0.4810 nb         1 LIY      -0.289000
     19 C2          -1.8490    -2.1670     0.8250 ca         1 LIY       0.405900
     20 N4          -2.7570    -3.1000     1.2070 nv         1 LIY      -1.050900
     21 C12          0.8310     0.8010    -0.3200 cp         1 LIY       0.028000
     22 C11          0.3520     2.0370    -0.7370 ca         1 LIY      -0.179000
     23 C9           2.6000     2.8310    -1.1030 ca         1 LIY      -0.152300
     24 C14          2.9350     5.2680    -1.4170 c6         1 LIY      -0.079400
     25 C23          2.4140     6.2560    -5.7150 ca         1 LIY      -0.110500
     26 C25          1.6540     3.9820    -5.7270 ca         1 LIY      -0.110500
     27 N5           0.7120     4.2740    -1.5960 nh         1 LIY      -0.836400
     28 C16         -0.7110     4.4860    -1.7600 c3         1 LIY       0.229800
     29 C18         -0.9630     6.2150     0.0740 c3         1 LIY       0.161600
     30 O1          -1.7210     6.5350     1.2140 os         1 LIY      -0.454000
     31 C19         -1.3440     7.7600     1.7870 c3         1 LIY       0.147900
     32 HN31         0.2290    -0.2680     3.3480 hn         1 LIY       0.491000
     33 HN32         1.0710     0.6750     2.1960 hn         1 LIY       0.491000
     34 H61          0.2110    -0.2710    -2.5640 hc         1 LIY       0.058200
     35 H62         -0.6790    -1.7640    -2.8150 hc         1 LIY       0.058200
     36 H7           2.5980    -0.3710     0.0620 ha         1 LIY       0.115000
     37 H8           4.1330     1.4420    -0.6090 ha         1 LIY       0.107000
     38 H131         4.4770     3.8420    -0.9360 hc         1 LIY       0.051700
     39 H132         3.8760     3.7230    -2.5750 hc         1 LIY       0.051700
     40 H15          1.1300     6.2640    -1.9200 h1         1 LIY       0.055700
     41 H171        -2.5080     4.9520    -0.7090 hc         1 LIY       0.062700
     42 H172        -1.3240     4.1120     0.2820 hc         1 LIY       0.062700
     43 H201        -2.8480    -0.4970    -2.6540 hc         1 LIY       0.036033
     44 H202        -1.8290     0.0940    -3.9670 hc         1 LIY       0.036033
     45 H203        -1.9420     1.0050    -2.4640 hc         1 LIY       0.036033
     46 H22          2.4450     7.2240    -3.8070 ha         1 LIY       0.115000
     47 H24          2.2710     5.0470    -7.4860 ha         1 LIY       0.113000
     48 H26          1.0840     3.1630    -3.8380 ha         1 LIY       0.115000
     49 HN41        -2.6970    -3.4520     2.1470 hn         1 LIY       0.483500
     50 HN42        -3.0570    -3.7620     0.5110 hn         1 LIY       0.483500
     51 H11         -0.7200     2.1790    -0.7400 ha         1 LIY       0.120000
     52 H141         2.7750     5.5180    -0.3640 hc         1 LIY       0.052200
     53 H142         3.5860     6.0360    -1.8350 hc         1 LIY       0.052200
     54 H23          2.7770     7.1310    -6.2390 ha         1 LIY       0.112500
     55 H25          1.4230     3.0700    -6.2620 ha         1 LIY       0.112500
     56 H161        -1.1830     3.5970    -2.1870 h1         1 LIY       0.048700
     57 H162        -0.8470     5.2670    -2.5110 h1         1 LIY       0.048700
     58 H181         0.1060     6.1610     0.3290 h1         1 LIY       0.020200
     59 H182        -1.0670     7.0010    -0.6910 h1         1 LIY       0.020200
     60 H191        -0.2990     7.7550     2.1210 h1         1 LIY       0.027033
     61 H192        -1.9800     7.9390     2.6540 h1         1 LIY       0.027033
     62 H193        -1.4680     8.5970     1.0890 h1         1 LIY       0.027033
@<TRIPOS>BOND
     1     1    16 ar  
     2     1    19 ar  
     3     2    16 1   
     4     2    32 1   
     5     2    33 1   
     6     3    16 ar  
     7     3    17 ar  
     8     3    21 1   
     9     4    11 1   
    10     4    17 1   
    11     4    34 1   
    12     4    35 1   
    13     5     6 ar  
    14     5    21 ar  
    15     5    36 1   
    16     6    23 ar  
    17     6    37 1   
    18     7    22 ar  
    19     7    23 ar  
    20     7    27 1   
    21     8    23 1   
    22     8    24 1   
    23     8    38 1   
    24     8    39 1   
    25     9    12 1   
    26     9    24 1   
    27     9    27 1   
    28     9    40 1   
    29    10    28 1   
    30    10    29 1   
    31    10    41 1   
    32    10    42 1   
    33    11    43 1   
    34    11    44 1   
    35    11    45 1   
    36    12    13 ar  
    37    12    15 ar  
    38    13    25 ar  
    39    13    46 1   
    40    14    25 ar  
    41    14    26 ar  
    42    14    47 1   
    43    15    26 ar  
    44    15    48 1   
    45    17    18 ar  
    46    18    19 ar  
    47    19    20 1   
    48    20    49 1   
    49    20    50 1   
    50    21    22 ar  
    51    22    51 1   
    52    24    52 1   
    53    24    53 1   
    54    25    54 1   
    55    26    55 1   
    56    27    28 1   
    57    28    56 1   
    58    28    57 1   
    59    29    30 1   
    60    29    58 1   
    61    29    59 1   
    62    30    31 1   
    63    31    60 1   
    64    31    61 1   
    65    31    62 1   
@<TRIPOS>SUBSTRUCTURE
     1 LIY         1 TEMP              0 ****  ****    0 ROOT
