@<TRIPOS>MOLECULE
LIY
   62    65     1     0     0
SMALL
No Charge or Current Charge


@<TRIPOS>ATOM
      1 N1          -1.1480    -1.6900     1.8460 nb         1 LIY      -0.330000
      2 N3           0.3700    -0.1430     2.4920 nv         1 LIY      -1.065900
      3 C4          -0.1560    -0.3030     0.1320 cp         1 LIY      -0.271000
      4 C6          -0.9000    -0.7240    -2.3250 c3         1 LIY      -0.134700
      5 C7           2.1830     0.6010    -0.1350 ca         1 LIY      -0.168000
      6 C8           3.0710     1.6150    -0.5140 ca         1 LIY      -0.071000
      7 C10          1.1860     3.0470    -1.1540 ca         1 LIY       0.345000
      8 C13          3.5890     3.9080    -1.4320 c6         1 LIY      -0.022100
      9 C15          1.6160     5.3100    -2.2200 c6         1 LIY       0.291800
     10 C17         -1.4730     4.9790    -0.5460 c3         1 LIY      -0.100400
     11 C20         -2.1170     0.0750    -2.8380 c3         1 LIY      -0.081100
     12 C21          1.8270     5.2100    -3.7450 ca         1 LIY      -0.110300
     13 C22          1.9990     6.3930    -4.4930 ca         1 LIY      -0.102000
     14 C24          2.2270     5.0970    -6.5410 ca         1 LIY      -0.109000
     15 C26          1.8590     3.9670    -4.4160 ca         1 LIY      -0.102000
     16 C1          -0.3140    -0.7170     1.4720 ca         1 LIY       0.423900
     17 C3          -0.9510    -0.9950    -0.8230 ca         1 LIY       0.204300
     18 N2          -1.7930    -1.9810    -0.4470 nb         1 LIY      -0.289000
     19 C2          -1.8400    -2.2620     0.8590 ca         1 LIY       0.405900
     20 N4          -2.6840    -3.2520     1.2260 nv         1 LIY      -1.050900
     21 C12          0.7910     0.7820    -0.2550 cp         1 LIY       0.028000
     22 C11          0.3130     2.0090    -0.7610 ca         1 LIY      -0.179000
     23 C9           2.5830     2.8340    -1.0200 ca         1 LIY      -0.152300
     24 C14          2.9460     5.3040    -1.4370 c6         1 LIY      -0.079400
     25 C23          2.1980     6.3370    -5.8840 ca         1 LIY      -0.110500
     26 C25          2.0580     3.9120    -5.8060 ca         1 LIY      -0.110500
     27 N5           0.6830     4.2740    -1.6940 nh         1 LIY      -0.836400
     28 C16         -0.7640     4.5580    -1.8510 c3         1 LIY       0.229800
     29 C18         -0.9180     6.2810     0.0580 c3         1 LIY       0.161600
     30 O1          -1.7200     6.6100     1.2040 os         1 LIY      -0.454000
     31 C19         -1.3160     7.8080     1.8870 c3         1 LIY       0.147900
     32 HN31         0.3930    -0.6240     3.3870 hn         1 LIY       0.491000
     33 HN32         1.1580     0.4550     2.2640 hn         1 LIY       0.491000
     34 H61          0.0160    -0.1860    -2.5940 hc         1 LIY       0.058200
     35 H62         -0.8520    -1.6750    -2.8700 hc         1 LIY       0.058200
     36 H7           2.5730    -0.3410     0.2450 ha         1 LIY       0.115000
     37 H8           4.1430     1.4520    -0.4190 ha         1 LIY       0.107000
     38 H131         4.4510     3.9060    -0.7510 hc         1 LIY       0.051700
     39 H132         3.9830     3.6750    -2.4300 hc         1 LIY       0.051700
     40 H15          1.1680     6.2980    -2.0310 h1         1 LIY       0.055700
     41 H171        -2.5400     5.1120    -0.7590 hc         1 LIY       0.062700
     42 H172        -1.3920     4.1770     0.1950 hc         1 LIY       0.062700
     43 H201        -3.0470    -0.4780    -2.6620 hc         1 LIY       0.036033
     44 H202        -2.0270     0.2580    -3.9160 hc         1 LIY       0.036033
     45 H203        -2.1930     1.0440    -2.3330 hc         1 LIY       0.036033
     46 H22          1.9810     7.3610    -3.9960 ha         1 LIY       0.115000
     47 H24          2.3810     5.0530    -7.6170 ha         1 LIY       0.113000
     48 H26          1.7300     3.0400    -3.8640 ha         1 LIY       0.115000
     49 HN41        -2.5870    -3.6450     2.1590 hn         1 LIY       0.483500
     50 HN42        -3.0590    -3.8630     0.5050 hn         1 LIY       0.483500
     51 H11         -0.7590     2.1330    -0.8390 ha         1 LIY       0.120000
     52 H141         2.7520     5.6160    -0.4020 hc         1 LIY       0.052200
     53 H142         3.6400     6.0430    -1.8590 hc         1 LIY       0.052200
     54 H23          2.3300     7.2560    -6.4510 ha         1 LIY       0.112500
     55 H25          2.0800     2.9500    -6.3130 ha         1 LIY       0.112500
     56 H161        -1.2740     3.6830    -2.2750 h1         1 LIY       0.048700
     57 H162        -0.9050     5.3610    -2.5890 h1         1 LIY       0.048700
     58 H181         0.1320     6.1380     0.3480 h1         1 LIY       0.020200
     59 H182        -0.9660     7.0840    -0.6900 h1         1 LIY       0.020200
     60 H191        -0.2850     7.7200     2.2530 h1         1 LIY       0.027033
     61 H192        -1.9700     7.9960     2.7470 h1         1 LIY       0.027033
     62 H193        -1.3740     8.6770     1.2170 h1         1 LIY       0.027033
@<TRIPOS>BOND
     1     1    16 ar  
     2     1    19 ar  
     3     2    16 1   
     4     2    32 1   
     5     2    33 1   
     6     3    16 ar  
     7     3    17 ar  
     8     3    21 1   
     9     4    11 1   
    10     4    17 1   
    11     4    34 1   
    12     4    35 1   
    13     5     6 ar  
    14     5    21 ar  
    15     5    36 1   
    16     6    23 ar  
    17     6    37 1   
    18     7    22 ar  
    19     7    23 ar  
    20     7    27 1   
    21     8    23 1   
    22     8    24 1   
    23     8    38 1   
    24     8    39 1   
    25     9    12 1   
    26     9    24 1   
    27     9    27 1   
    28     9    40 1   
    29    10    28 1   
    30    10    29 1   
    31    10    41 1   
    32    10    42 1   
    33    11    43 1   
    34    11    44 1   
    35    11    45 1   
    36    12    13 ar  
    37    12    15 ar  
    38    13    25 ar  
    39    13    46 1   
    40    14    25 ar  
    41    14    26 ar  
    42    14    47 1   
    43    15    26 ar  
    44    15    48 1   
    45    17    18 ar  
    46    18    19 ar  
    47    19    20 1   
    48    20    49 1   
    49    20    50 1   
    50    21    22 ar  
    51    22    51 1   
    52    24    52 1   
    53    24    53 1   
    54    25    54 1   
    55    26    55 1   
    56    27    28 1   
    57    28    56 1   
    58    28    57 1   
    59    29    30 1   
    60    29    58 1   
    61    29    59 1   
    62    30    31 1   
    63    31    60 1   
    64    31    61 1   
    65    31    62 1   
@<TRIPOS>SUBSTRUCTURE
     1 LIY         1 TEMP              0 ****  ****    0 ROOT
