@<TRIPOS>MOLECULE
LIZ
   89    90     1     0     0
SMALL
No Charge or Current Charge


@<TRIPOS>ATOM
      1 N1           1.2700     1.7530    -0.7290 n3         1 LIZ      -0.722600
      2 N3           5.1200    -1.6040    -0.3830 n3         1 LIZ      -0.685600
      3 C4           1.4480     0.5460    -1.6130 c3         1 LIZ       0.054300
      4 C5           3.9220     0.3120     4.0410 c          1 LIZ       0.715000
      5 C6           4.6190     0.7430     2.6890 c3         1 LIZ       0.067800
      6 C7           6.2330    -3.7480    -1.5230 c          1 LIZ       0.738000
      7 C8           6.2100    -2.6570    -0.3820 c3         1 LIZ       0.071300
      8 C10          3.9530    -2.0250     0.4740 c3         1 LIZ       0.071300
      9 C13          4.6230     0.9930     0.1600 c6         1 LIZ       0.208500
     10 C15          5.4010     2.3600     0.2070 c6         1 LIZ      -0.118400
     11 C17          7.1410     1.5510    -1.4250 c6         1 LIZ      -0.068400
     12 C20         -1.9640     0.6840     1.7090 ca         1 LIZ      -0.068000
     13 C21         -3.2390     0.2550     1.2980 ca         1 LIZ      -0.102000
     14 C22         -3.8540     0.8290     0.1670 ca         1 LIZ      -0.054400
     15 C24         -1.8880     2.2430    -0.1470 ca         1 LIZ      -0.068000
     16 C26         -6.2440    -0.1100     0.3060 cs         1 LIZ       0.491400
     17 C28         -8.5580    -0.9920    -0.4490 c3         1 LIZ       0.176400
     18 O7           6.3000    -3.3850    -2.6940 o          1 LIZ      -0.770500
     19 O8           6.2790    -4.9310    -1.2020 o          1 LIZ      -0.770500
     20 C9           3.3600    -3.4810     0.3100 c          1 LIZ       0.738000
     21 O10          3.4370    -4.2560     1.2580 o          1 LIZ      -0.770500
     22 O9           2.8260    -3.7940    -0.7490 o          1 LIZ      -0.770500
     23 C14          5.6560    -0.1940    -0.1840 c6         1 LIZ       0.244500
     24 C18          6.4280     0.1850    -1.4990 c6         1 LIZ      -0.095400
     25 C16          6.1340     2.6670    -1.1110 c6         1 LIZ      -0.064400
     26 N2           3.7930     0.8260     1.4240 n3         1 LIZ      -0.698600
     27 O6           3.6950     1.1740     4.8830 o          1 LIZ      -0.753500
     28 O5           3.6610    -0.8710     4.2260 o          1 LIZ      -0.753500
     29 C12          2.6170     1.7570     1.5630 c3         1 LIZ       0.175800
     30 C11          1.2840     1.4760     0.7570 c3         1 LIZ       0.218500
     31 C3           0.2490    -0.4740    -1.7390 c          1 LIZ       0.720000
     32 O4          -0.3730    -0.5160    -2.7960 o          1 LIZ      -0.768500
     33 O3          -0.0180    -1.2030    -0.7900 o          1 LIZ      -0.768500
     34 C2           1.9120     3.0290    -1.2240 c3         1 LIZ       0.054300
     35 C1           1.4190     4.4330    -0.6950 c          1 LIZ       0.720000
     36 O2           0.4320     4.9420    -1.2130 o          1 LIZ      -0.768500
     37 O1           2.0730     5.0030     0.1710 o          1 LIZ      -0.768500
     38 C25          0.0860     2.1740     1.4680 c3         1 LIZ      -0.034100
     39 C19         -1.2810     1.6860     0.9940 ca         1 LIZ       0.056700
     40 C23         -3.1600     1.8120    -0.5610 ca         1 LIZ      -0.102000
     41 S1          -6.4500    -0.2470     1.9670 s          1 LIZ      -0.769400
     42 N5          -7.1930    -0.4290    -0.6340 ns         1 LIZ      -0.476900
     43 C29         -8.4980    -2.3860     0.2730 c3         1 LIZ       0.141267
     44 O11         -7.6040    -3.3090    -0.3860 oh         1 LIZ      -0.654333
     45 C30         -9.4620    -0.0120     0.3790 c3         1 LIZ       0.141267
     46 O12         -9.4850     1.3200    -0.1800 oh         1 LIZ      -0.654333
     47 C27         -9.1740    -1.1790    -1.8800 c3         1 LIZ       0.141267
     48 O13        -10.5110    -1.7230    -1.8500 oh         1 LIZ      -0.654333
     49 H4           1.6760     0.8800    -2.6350 h1         1 LIZ       0.009200
     50 H4A          2.3180    -0.0350    -1.2890 h1         1 LIZ       0.009200
     51 H6           5.0830     1.7210     2.8750 h1         1 LIZ      -0.010800
     52 H6A          5.4450     0.0370     2.5380 h1         1 LIZ      -0.010800
     53 H8           7.2010    -2.1860    -0.4020 h1         1 LIZ       0.007950
     54 H8A          6.1890    -3.1900     0.5790 h1         1 LIZ       0.007950
     55 H10          4.2330    -1.9140     1.5300 h1         1 LIZ       0.007950
     56 H10A         3.1080    -1.3510     0.2920 h1         1 LIZ       0.007950
     57 H13          3.9490     1.0510    -0.7010 h1         1 LIZ       0.078700
     58 H15          4.7310     3.2000     0.4220 hc         1 LIZ       0.026700
     59 H15A         6.1410     2.3480     1.0170 hc         1 LIZ       0.026700
     60 H17          7.9240     1.5210    -0.6550 hc         1 LIZ      -0.012800
     61 H17A         7.6430     1.7610    -2.3790 hc         1 LIZ      -0.012800
     62 H20         -1.5060     0.2340     2.5870 ha         1 LIZ       0.155500
     63 H21         -3.7280    -0.5380     1.8560 ha         1 LIZ       0.078500
     64 H24         -1.3690     3.0100    -0.7160 ha         1 LIZ       0.155500
     65 H14          6.3980    -0.2280     0.6270 h1         1 LIZ      -0.042300
     66 H18          5.7200     0.1950    -2.3390 hc         1 LIZ       0.065200
     67 H18A         7.1820    -0.5670    -1.7580 hc         1 LIZ       0.065200
     68 H16          5.4090     2.7650    -1.9310 hc         1 LIZ       0.004200
     69 H16A         6.6570     3.6290    -1.0330 hc         1 LIZ       0.004200
     70 H12          2.3150     1.7280     2.6170 h1         1 LIZ       0.020200
     71 H12A         2.9190     2.7960     1.4020 h1         1 LIZ       0.020200
     72 H11          1.1040     0.4020     0.9130 h1         1 LIZ       0.135700
     73 H2           2.9930     2.9830    -1.0590 h1         1 LIZ       0.009200
     74 H2A          1.7890     3.0740    -2.3150 h1         1 LIZ       0.009200
     75 H25          0.1590     1.9980     2.5480 hc         1 LIZ       0.036200
     76 H25A         0.1590     3.2590     1.3500 hc         1 LIZ       0.036200
     77 H23         -3.6090     2.2540    -1.4470 ha         1 LIZ       0.078500
     78 HN4         -5.2290     0.5280    -1.3020 hn         1 LIZ       0.295500
     79 HN5         -6.9240    -0.2710    -1.5950 hn         1 LIZ       0.297500
     80 H29         -8.1850    -2.2470     1.3140 h1         1 LIZ       0.038867
     81 H29A        -9.5100    -2.8110     0.3150 h1         1 LIZ       0.038867
     82 HO11        -7.5770    -4.1240     0.1610 ho         1 LIZ       0.431333
     83 H30        -10.4820    -0.4160     0.4230 h1         1 LIZ       0.038867
     84 H30A        -9.1070     0.0290     1.4150 h1         1 LIZ       0.038867
     85 HO12       -10.0160     1.8790     0.4280 ho         1 LIZ       0.431333
     86 H27         -9.1820    -0.2080    -2.3930 h1         1 LIZ       0.038867
     87 H27A        -8.5200    -1.8400    -2.4650 h1         1 LIZ       0.038867
     88 HO13       -10.8100    -1.8060    -2.7830 ho         1 LIZ       0.431333
     89 N4          -5.1310     0.4200    -0.3020 ns         1 LIZ      -0.277100
@<TRIPOS>BOND
     1     1     3 1   
     2     1    30 1   
     3     1    34 1   
     4     2     7 1   
     5     2     8 1   
     6     2    23 1   
     7     3    31 1   
     8     3    49 1   
     9     3    50 1   
    10     4     5 1   
    11     4    27 1   
    12     4    28 1   
    13     5    26 1   
    14     5    51 1   
    15     5    52 1   
    16     6     7 1   
    17     6    18 1   
    18     6    19 1   
    19     7    53 1   
    20     7    54 1   
    21     8    20 1   
    22     8    55 1   
    23     8    56 1   
    24     9    10 1   
    25     9    23 1   
    26     9    26 1   
    27     9    57 1   
    28    10    25 1   
    29    10    58 1   
    30    10    59 1   
    31    11    24 1   
    32    11    25 1   
    33    11    60 1   
    34    11    61 1   
    35    12    13 ar  
    36    12    39 ar  
    37    12    62 1   
    38    13    14 ar  
    39    13    63 1   
    40    14    40 ar  
    41    14    89 1   
    42    15    39 ar  
    43    15    40 ar  
    44    15    64 1   
    45    16    41 2   
    46    16    42 1   
    47    16    89 1   
    48    17    42 1   
    49    17    43 1   
    50    17    45 1   
    51    17    47 1   
    52    20    21 1   
    53    20    22 1   
    54    23    24 1   
    55    23    65 1   
    56    24    66 1   
    57    24    67 1   
    58    25    68 1   
    59    25    69 1   
    60    26    29 1   
    61    29    30 1   
    62    29    70 1   
    63    29    71 1   
    64    30    38 1   
    65    30    72 1   
    66    31    32 1   
    67    31    33 1   
    68    34    35 1   
    69    34    73 1   
    70    34    74 1   
    71    35    36 1   
    72    35    37 1   
    73    38    39 1   
    74    38    75 1   
    75    38    76 1   
    76    40    77 1   
    77    42    79 1   
    78    43    44 1   
    79    43    80 1   
    80    43    81 1   
    81    44    82 1   
    82    45    46 1   
    83    45    83 1   
    84    45    84 1   
    85    46    85 1   
    86    47    48 1   
    87    47    86 1   
    88    47    87 1   
    89    48    88 1   
    90    78    89 1   
@<TRIPOS>SUBSTRUCTURE
     1 LIZ         1 TEMP              0 ****  ****    0 ROOT
