@<TRIPOS>MOLECULE
LIZ
   89    90     1     0     0
SMALL
abcg2


@<TRIPOS>ATOM
      1 N1           1.1880     1.4880    -0.9560 n3         1 LIZ      -0.722600
      2 N3           5.2430    -1.3750    -0.3850 n3         1 LIZ      -0.685600
      3 C4           1.5730     0.3290    -1.7410 c3         1 LIZ       0.054300
      4 C5           3.1800    -0.2220     3.4990 c          1 LIZ       0.715000
      5 C6           4.1350     0.5430     2.5600 c3         1 LIZ       0.067800
      6 C7           6.7850    -2.9790    -1.6770 c          1 LIZ       0.738000
      7 C8           6.3250    -2.3490    -0.3520 c3         1 LIZ       0.071300
      8 C10          4.0710    -1.9180     0.2730 c3         1 LIZ       0.071300
      9 C13          4.6700     1.0790     0.2330 c6         1 LIZ       0.208500
     10 C15          5.4150     2.3970     0.5400 c6         1 LIZ      -0.118400
     11 C17          7.3650     1.7560    -0.8470 c6         1 LIZ      -0.068400
     12 C20         -1.9570     0.4530     1.4810 ca         1 LIZ      -0.068000
     13 C21         -3.2020    -0.0210     1.1030 ca         1 LIZ      -0.102000
     14 C22         -3.8400     0.5300    -0.0020 ca         1 LIZ      -0.054400
     15 C24         -1.9440     1.9800    -0.3470 ca         1 LIZ      -0.068000
     16 C26         -6.2390    -0.0680     0.2380 cs         1 LIZ       0.491400
     17 C28         -8.6400    -0.8230    -0.1320 c3         1 LIZ       0.176400
     18 O7           6.6380    -2.3500    -2.7390 o          1 LIZ      -0.770500
     19 O8           7.3720    -4.0810    -1.5540 o          1 LIZ      -0.770500
     20 C9           3.5280    -3.2160    -0.3480 c          1 LIZ       0.738000
     21 O10          2.7060    -3.8340     0.3680 o          1 LIZ      -0.770500
     22 O9           3.9120    -3.5630    -1.4790 o          1 LIZ      -0.770500
     23 C14          5.7180    -0.0400    -0.0080 c6         1 LIZ       0.244500
     24 C18          6.6570     0.4420    -1.1320 c6         1 LIZ      -0.095400
     25 C16          6.3520     2.8490    -0.5660 c6         1 LIZ      -0.064400
     26 N2           3.6420     0.8070     1.2310 n3         1 LIZ      -0.698600
     27 O6           3.6590    -0.4450     4.6380 o          1 LIZ      -0.753500
     28 O5           2.0540    -0.5550     3.0970 o          1 LIZ      -0.753500
     29 C12          2.5270     1.7420     1.2140 c3         1 LIZ       0.175800
     30 C11          1.2440     1.2780     0.4910 c3         1 LIZ       0.218500
     31 C3           0.6240    -0.8860    -1.7480 c          1 LIZ       0.720000
     32 O4           0.9620    -1.7790    -2.5590 o          1 LIZ      -0.768500
     33 O3          -0.3720    -0.8990    -1.0090 o          1 LIZ      -0.768500
     34 C2           1.8110     2.6950    -1.4740 c3         1 LIZ       0.054300
     35 C1           1.2210     4.0450    -1.0040 c          1 LIZ       0.720000
     36 O2           0.0780     4.3380    -1.4160 o          1 LIZ      -0.768500
     37 O1           1.9440     4.7730    -0.2920 o          1 LIZ      -0.768500
     38 C25          0.0440     1.9370     1.2070 c3         1 LIZ      -0.034100
     39 C19         -1.3040     1.4530     0.7680 ca         1 LIZ       0.056700
     40 C23         -3.2020     1.5330    -0.7220 ca         1 LIZ      -0.102000
     41 S1          -6.3540     0.4030     1.8480 s          1 LIZ      -0.769400
     42 N5          -7.2420    -0.5870    -0.4820 ns         1 LIZ      -0.476900
     43 C29         -8.7710    -1.9200     0.9250 c3         1 LIZ       0.141267
     44 O11         -8.1860    -3.1020     0.4380 oh         1 LIZ      -0.654333
     45 C30         -9.3330     0.4380     0.3900 c3         1 LIZ       0.141267
     46 O12         -9.0600     1.5080    -0.4800 oh         1 LIZ      -0.654333
     47 C27         -9.2750    -1.2610    -1.4640 c3         1 LIZ       0.141267
     48 O13        -10.6180    -1.6020    -1.2460 oh         1 LIZ      -0.654333
     49 H4           1.6510     0.6520    -2.7840 h1         1 LIZ       0.009200
     50 H4A          2.5770    -0.0500    -1.4900 h1         1 LIZ       0.009200
     51 H6           4.4460     1.4580     3.0970 h1         1 LIZ      -0.010800
     52 H6A          5.0430    -0.0610     2.4930 h1         1 LIZ      -0.010800
     53 H8           7.2250    -1.9020     0.1000 h1         1 LIZ       0.007950
     54 H8A          6.0710    -3.1610     0.3380 h1         1 LIZ       0.007950
     55 H10          4.2470    -2.1220     1.3440 h1         1 LIZ       0.007950
     56 H10A         3.2640    -1.1900     0.2630 h1         1 LIZ       0.007950
     57 H13          4.1450     1.2120    -0.7200 h1         1 LIZ       0.078700
     58 H15          4.6830     3.1850     0.7330 hc         1 LIZ       0.026700
     59 H15A         5.9890     2.2790     1.4670 hc         1 LIZ       0.026700
     60 H17          8.0250     1.6400     0.0210 hc         1 LIZ      -0.012800
     61 H17A         8.0080     2.0210    -1.6900 hc         1 LIZ      -0.012800
     62 H20         -1.4700     0.0170     2.3470 ha         1 LIZ       0.155500
     63 H21         -3.6790    -0.8110     1.6660 ha         1 LIZ       0.078500
     64 H24         -1.4480     2.7530    -0.9200 ha         1 LIZ       0.155500
     65 H14          6.3330    -0.1000     0.9130 h1         1 LIZ      -0.042300
     66 H18          6.0620     0.5290    -2.0470 hc         1 LIZ       0.065200
     67 H18A         7.3980    -0.3260    -1.3390 hc         1 LIZ       0.065200
     68 H16          5.7730     3.0570    -1.4740 hc         1 LIZ       0.004200
     69 H16A         6.8440     3.7860    -0.2900 hc         1 LIZ       0.004200
     70 H12          2.2480     1.9330     2.2510 h1         1 LIZ       0.020200
     71 H12A         2.8180     2.7210     0.8240 h1         1 LIZ       0.020200
     72 H11          1.1550     0.2090     0.6680 h1         1 LIZ       0.135700
     73 H2           2.9010     2.7150    -1.3160 h1         1 LIZ       0.009200
     74 H2A          1.6740     2.6730    -2.5610 h1         1 LIZ       0.009200
     75 H25          0.1550     1.7190     2.2730 hc         1 LIZ       0.036200
     76 H25A         0.1050     3.0230     1.1110 hc         1 LIZ       0.036200
     77 H23         -3.6980     1.9670    -1.5840 ha         1 LIZ       0.078500
     78 HN4         -5.1470    -0.0740    -1.4640 hn         1 LIZ       0.295500
     79 HN5         -6.9890    -0.9080    -1.4060 hn         1 LIZ       0.297500
     80 H29         -8.2810    -1.5750     1.8410 h1         1 LIZ       0.038867
     81 H29A        -9.8340    -2.0560     1.1580 h1         1 LIZ       0.038867
     82 HO11        -8.2880    -3.7820     1.1090 ho         1 LIZ       0.431333
     83 H30        -10.4070     0.2260     0.4490 h1         1 LIZ       0.038867
     84 H30A        -8.9820     0.6470     1.4040 h1         1 LIZ       0.038867
     85 HO12        -9.5500     2.2730    -0.1660 ho         1 LIZ       0.431333
     86 H27         -9.1750    -0.4380    -2.1820 h1         1 LIZ       0.038867
     87 H27A        -8.7060    -2.1110    -1.8640 h1         1 LIZ       0.038867
     88 HO13       -11.0170    -1.8050    -2.0960 ho         1 LIZ       0.431333
     89 N4          -5.0880     0.0550    -0.4640 ns         1 LIZ      -0.277100
@<TRIPOS>BOND
     1     1     3 1   
     2     1    30 1   
     3     1    34 1   
     4     2     7 1   
     5     2     8 1   
     6     2    23 1   
     7     3    31 1   
     8     3    49 1   
     9     3    50 1   
    10     4     5 1   
    11     4    27 1   
    12     4    28 1   
    13     5    26 1   
    14     5    51 1   
    15     5    52 1   
    16     6     7 1   
    17     6    18 1   
    18     6    19 1   
    19     7    53 1   
    20     7    54 1   
    21     8    20 1   
    22     8    55 1   
    23     8    56 1   
    24     9    10 1   
    25     9    23 1   
    26     9    26 1   
    27     9    57 1   
    28    10    25 1   
    29    10    58 1   
    30    10    59 1   
    31    11    24 1   
    32    11    25 1   
    33    11    60 1   
    34    11    61 1   
    35    12    13 ar  
    36    12    39 ar  
    37    12    62 1   
    38    13    14 ar  
    39    13    63 1   
    40    14    40 ar  
    41    14    89 1   
    42    15    39 ar  
    43    15    40 ar  
    44    15    64 1   
    45    16    41 2   
    46    16    42 1   
    47    16    89 1   
    48    17    42 1   
    49    17    43 1   
    50    17    45 1   
    51    17    47 1   
    52    20    21 1   
    53    20    22 1   
    54    23    24 1   
    55    23    65 1   
    56    24    66 1   
    57    24    67 1   
    58    25    68 1   
    59    25    69 1   
    60    26    29 1   
    61    29    30 1   
    62    29    70 1   
    63    29    71 1   
    64    30    38 1   
    65    30    72 1   
    66    31    32 1   
    67    31    33 1   
    68    34    35 1   
    69    34    73 1   
    70    34    74 1   
    71    35    36 1   
    72    35    37 1   
    73    38    39 1   
    74    38    75 1   
    75    38    76 1   
    76    40    77 1   
    77    42    79 1   
    78    43    44 1   
    79    43    80 1   
    80    43    81 1   
    81    44    82 1   
    82    45    46 1   
    83    45    83 1   
    84    45    84 1   
    85    46    85 1   
    86    47    48 1   
    87    47    86 1   
    88    47    87 1   
    89    48    88 1   
    90    78    89 1   
@<TRIPOS>SUBSTRUCTURE
     1 LIZ         1 TEMP              0 ****  ****    0 ROOT
