@<TRIPOS>MOLECULE
LJ0
   35    37     1     0     0
SMALL
No Charge or Current Charge


@<TRIPOS>ATOM
      1 N1           9.5730    -0.3650    20.4980 ns         1 LJ0      -0.148000
      2 C4           8.5080     0.5290    18.4180 ca         1 LJ0       0.324900
      3 C5           8.4470     0.1400    19.7820 ca         1 LJ0      -0.073000
      4 C6          10.8990    -0.5490    20.1380 c          1 LJ0       0.638100
      5 C7          11.7440    -1.1280    21.2470 cx         1 LJ0      -0.252700
      6 C8          13.0670    -0.4720    21.5820 cx         1 LJ0      -0.073700
      7 C10         14.0120    -2.3050    23.1430 c6         1 LJ0      -0.075900
      8 C13         11.8960    -0.3300    22.5350 cx         1 LJ0      -0.073700
      9 O           11.3670    -0.2840    19.0380 o          1 LJ0      -0.588100
     10 C12         11.8780    -1.0890    23.8770 c6         1 LJ0      -0.050900
     11 C11         13.2720    -1.6080    24.3090 c6         1 LJ0      -0.075900
     12 C9          14.2940    -1.3080    21.9910 c6         1 LJ0      -0.050900
     13 C1           7.2110     0.2590    20.4560 ca         1 LJ0      -0.092300
     14 C            7.0520    -0.1350    21.9220 c3         1 LJ0      -0.051800
     15 N            7.4420     1.0090    17.7310 nb         1 LJ0      -0.645000
     16 C3           6.2670     1.1180    18.3880 ca         1 LJ0       0.310900
     17 C2           6.1100     0.7580    19.7350 ca         1 LJ0      -0.141000
     18 H1           9.3660    -0.6380    21.4490 hn         1 LJ0       0.151000
     19 H2           9.4260     0.4590    17.8410 h4         1 LJ0       0.048100
     20 H3          11.6940    -2.2100    21.3300 hc         1 LJ0       0.086700
     21 H4          13.3370     0.4050    20.9970 hc         1 LJ0       0.099200
     22 H5          13.4140    -3.1500    22.7750 hc         1 LJ0       0.042200
     23 H6          14.9590    -2.7300    23.5020 hc         1 LJ0       0.042200
     24 H7          11.4170     0.6470    22.5850 hc         1 LJ0       0.099200
     25 H8          11.4740    -0.4320    24.6600 hc         1 LJ0       0.047450
     26 H9          11.1780    -1.9330    23.7990 hc         1 LJ0       0.047450
     27 H10         13.1620    -2.3040    25.1520 hc         1 LJ0       0.042200
     28 H11         13.8790    -0.7690    24.6780 hc         1 LJ0       0.042200
     29 H12         14.6790    -1.8450    21.1130 hc         1 LJ0       0.047450
     30 H13         15.0900    -0.6170    22.3030 hc         1 LJ0       0.047450
     31 H14          7.2800    -1.1970    22.0720 hc         1 LJ0       0.045700
     32 H15          7.7240     0.4490    22.5620 hc         1 LJ0       0.045700
     33 H16          6.0300     0.0340    22.2790 hc         1 LJ0       0.045700
     34 H17          5.4250     1.5060    17.8150 h4         1 LJ0       0.021100
     35 H18          5.1370     0.8690    20.2070 ha         1 LJ0       0.120000
@<TRIPOS>BOND
     1     1     3 1   
     2     1     4 1   
     3     1    18 1   
     4     2     3 ar  
     5     2    15 ar  
     6     2    19 1   
     7     3    13 ar  
     8     4     5 1   
     9     4     9 2   
    10     5     6 1   
    11     5     8 1   
    12     5    20 1   
    13     6     8 1   
    14     6    12 1   
    15     6    21 1   
    16     7    11 1   
    17     7    12 1   
    18     7    22 1   
    19     7    23 1   
    20     8    10 1   
    21     8    24 1   
    22    10    11 1   
    23    10    25 1   
    24    10    26 1   
    25    11    27 1   
    26    11    28 1   
    27    12    29 1   
    28    12    30 1   
    29    13    14 1   
    30    13    17 ar  
    31    14    31 1   
    32    14    32 1   
    33    14    33 1   
    34    15    16 ar  
    35    16    17 ar  
    36    16    34 1   
    37    17    35 1   
@<TRIPOS>SUBSTRUCTURE
     1 LJ0         1 TEMP              0 ****  ****    0 ROOT
