@<TRIPOS>MOLECULE
LJ0
   35    37     1     0     0
SMALL
abcg2


@<TRIPOS>ATOM
      1 N1           9.4120    -0.3070    20.6970 ns         1 LJ0      -0.148000
      2 C4           8.6020     0.9600    18.7550 ca         1 LJ0       0.324900
      3 C5           8.3710     0.1780    19.8910 ca         1 LJ0      -0.073000
      4 C6          10.6710     0.2080    20.8600 c          1 LJ0       0.638100
      5 C7          11.5180    -0.5640    21.7980 cx         1 LJ0      -0.252700
      6 C8          12.9970    -0.6940    21.4820 cx         1 LJ0      -0.073700
      7 C10         13.5300    -2.5100    23.1790 c6         1 LJ0      -0.075900
      8 C13         12.5650     0.1780    22.6160 cx         1 LJ0      -0.073700
      9 O           11.0630     1.2190    20.2810 o          1 LJ0      -0.588100
     10 C12         12.8130    -0.2460    24.0590 c6         1 LJ0      -0.050900
     11 C11         13.8200    -1.3950    24.1840 c6         1 LJ0      -0.075900
     12 C9          13.7110    -2.0020    21.7460 c6         1 LJ0      -0.050900
     13 C1           7.0480    -0.1640    20.2190 ca         1 LJ0      -0.092300
     14 C            6.7280    -1.0040    21.4200 c3         1 LJ0      -0.051800
     15 N            7.6250     1.4150    17.9680 nb         1 LJ0      -0.645000
     16 C3           6.3680     1.0950    18.2830 ca         1 LJ0       0.310900
     17 C2           6.0450     0.3140    19.3830 ca         1 LJ0      -0.141000
     18 H1           9.1840    -1.0950    21.2830 hn         1 LJ0       0.151000
     19 H2           9.6130     1.2230    18.4840 h4         1 LJ0       0.048100
     20 H3          11.0470    -1.4100    22.2820 hc         1 LJ0       0.086700
     21 H4          13.2960    -0.1770    20.5780 hc         1 LJ0       0.099200
     22 H5          12.5110    -2.8810    23.3260 hc         1 LJ0       0.042200
     23 H6          14.1980    -3.3580    23.3460 hc         1 LJ0       0.042200
     24 H7          12.5870     1.2420    22.4220 hc         1 LJ0       0.099200
     25 H8          13.1730     0.6180    24.6210 hc         1 LJ0       0.047450
     26 H9          11.8680    -0.5430    24.5220 hc         1 LJ0       0.047450
     27 H10         13.8060    -1.7830    25.2050 hc         1 LJ0       0.042200
     28 H11         14.8310    -1.0140    24.0020 hc         1 LJ0       0.042200
     29 H12         13.3860    -2.7570    21.0240 hc         1 LJ0       0.047450
     30 H13         14.7800    -1.8390    21.5690 hc         1 LJ0       0.047450
     31 H14          7.1580    -2.0060    21.3310 hc         1 LJ0       0.045700
     32 H15          7.1350    -0.5570    22.3310 hc         1 LJ0       0.045700
     33 H16          5.6510    -1.1100    21.5380 hc         1 LJ0       0.045700
     34 H17          5.5890     1.4740    17.6300 h4         1 LJ0       0.021100
     35 H18          5.0100     0.0790    19.5950 ha         1 LJ0       0.120000
@<TRIPOS>BOND
     1     1     3 1   
     2     1     4 1   
     3     1    18 1   
     4     2     3 ar  
     5     2    15 ar  
     6     2    19 1   
     7     3    13 ar  
     8     4     5 1   
     9     4     9 2   
    10     5     6 1   
    11     5     8 1   
    12     5    20 1   
    13     6     8 1   
    14     6    12 1   
    15     6    21 1   
    16     7    11 1   
    17     7    12 1   
    18     7    22 1   
    19     7    23 1   
    20     8    10 1   
    21     8    24 1   
    22    10    11 1   
    23    10    25 1   
    24    10    26 1   
    25    11    27 1   
    26    11    28 1   
    27    12    29 1   
    28    12    30 1   
    29    13    14 1   
    30    13    17 ar  
    31    14    31 1   
    32    14    32 1   
    33    14    33 1   
    34    15    16 ar  
    35    16    17 ar  
    36    16    34 1   
    37    17    35 1   
@<TRIPOS>SUBSTRUCTURE
     1 LJ0         1 TEMP              0 ****  ****    0 ROOT
