@<TRIPOS>MOLECULE
LJ1
   33    34     1     0     0
SMALL
No Charge or Current Charge


@<TRIPOS>ATOM
      1 CAA         -4.1620     2.3020     0.0570 c3         1 LJ1      -0.040800
      2 CAM         -3.2290     1.0930    -0.0040 ca         1 LJ1      -0.138300
      3 CAK         -1.8360     1.2980    -0.0070 ca         1 LJ1      -0.062500
      4 CAQ         -3.7350    -0.2250    -0.0570 ca         1 LJ1       0.146100
      5 OAC         -5.0850    -0.4420    -0.0560 oh         1 LJ1      -0.537100
      6 CAN         -2.8510    -1.3240    -0.1150 ca         1 LJ1      -0.138300
      7 CAB         -3.3810    -2.7540    -0.1770 c3         1 LJ1      -0.040800
      8 CAL         -1.4600    -1.0980    -0.1160 ca         1 LJ1      -0.062500
      9 CAP         -0.9420     0.2110    -0.0600 ca         1 LJ1      -0.086800
     10 CAE          0.5280     0.4780    -0.0620 ce         1 LJ1      -0.139200
     11 CAD          1.5640    -0.4010     0.0690 cf         1 LJ1      -0.160200
     12 CAO          3.0210    -0.1470     0.0710 ca         1 LJ1      -0.048800
     13 CAI          3.9080    -1.2310     0.2330 ca         1 LJ1      -0.100500
     14 CAG          5.2990    -1.0260     0.2390 ca         1 LJ1      -0.111500
     15 CAF          5.8190     0.2690     0.0820 ca         1 LJ1      -0.107000
     16 CAH          4.9460     1.3560    -0.0820 ca         1 LJ1      -0.111500
     17 CAJ          3.5540     1.1510    -0.0870 ca         1 LJ1      -0.100500
     18 HAA         -4.8130     2.3470    -0.8240 hc         1 LJ1       0.042200
     19 HAAA        -4.7970     2.2690     0.9510 hc         1 LJ1       0.042200
     20 HAAB        -3.6030     3.2450     0.0930 hc         1 LJ1       0.042200
     21 HAK         -1.4430     2.3120     0.0360 ha         1 LJ1       0.112000
     22 HOAC        -5.5340     0.4270    -0.0130 ho         1 LJ1       0.466000
     23 HAB         -4.0040    -2.9040    -1.0680 hc         1 LJ1       0.042200
     24 HABA        -2.5710    -3.4920    -0.2160 hc         1 LJ1       0.042200
     25 HABB        -3.9930    -2.9850     0.7030 hc         1 LJ1       0.042200
     26 HAL         -0.7890    -1.9500    -0.1690 ha         1 LJ1       0.112000
     27 HAE          0.7700     1.5340    -0.1790 ha         1 LJ1       0.169000
     28 HAD          1.3120    -1.4530     0.2000 ha         1 LJ1       0.171000
     29 HAI          3.5210    -2.2400     0.3570 ha         1 LJ1       0.110500
     30 HAG          5.9720    -1.8710     0.3660 ha         1 LJ1       0.111500
     31 HAF          6.8950     0.4290     0.0860 ha         1 LJ1       0.112000
     32 HAH          5.3470     2.3600    -0.2040 ha         1 LJ1       0.111500
     33 HAJ          2.9040     2.0100    -0.2160 ha         1 LJ1       0.110500
@<TRIPOS>BOND
     1     1     2 1   
     2     1    18 1   
     3     1    19 1   
     4     1    20 1   
     5     2     3 ar  
     6     2     4 ar  
     7     3     9 ar  
     8     3    21 1   
     9     4     5 1   
    10     4     6 ar  
    11     5    22 1   
    12     6     7 1   
    13     6     8 ar  
    14     7    23 1   
    15     7    24 1   
    16     7    25 1   
    17     8     9 ar  
    18     8    26 1   
    19     9    10 1   
    20    10    11 2   
    21    10    27 1   
    22    11    12 1   
    23    11    28 1   
    24    12    13 ar  
    25    12    17 ar  
    26    13    14 ar  
    27    13    29 1   
    28    14    15 ar  
    29    14    30 1   
    30    15    16 ar  
    31    15    31 1   
    32    16    17 ar  
    33    16    32 1   
    34    17    33 1   
@<TRIPOS>SUBSTRUCTURE
     1 LJ1         1 TEMP              0 ****  ****    0 ROOT
