@<TRIPOS>MOLECULE
LJ1
   33    34     1     0     0
SMALL
bcc


@<TRIPOS>ATOM
      1 CAA         -4.0970     2.2750     0.0420 c3         1 LJ1      -0.040800
      2 CAM         -3.1630     1.0990    -0.0020 ca         1 LJ1      -0.138300
      3 CAK         -1.7850     1.2760     0.0090 ca         1 LJ1      -0.080500
      4 CAQ         -3.6600    -0.2050    -0.0580 ca         1 LJ1       0.146100
      5 OAC         -4.9820    -0.4740    -0.0760 oh         1 LJ1      -0.498100
      6 CAN         -2.7990    -1.3100    -0.1010 ca         1 LJ1      -0.138300
      7 CAB         -3.3590    -2.7000    -0.1700 c3         1 LJ1      -0.040800
      8 CAL         -1.4330    -1.0850    -0.0850 ca         1 LJ1      -0.080500
      9 CAP         -0.8940     0.2040    -0.0280 ca         1 LJ1      -0.086800
     10 CAE          0.5400     0.4770    -0.0100 ce         1 LJ1      -0.089200
     11 CAD          1.5260    -0.4300     0.0420 cf         1 LJ1      -0.110200
     12 CAO          2.9610    -0.1480     0.0500 ca         1 LJ1      -0.048800
     13 CAI          3.8530    -1.2110     0.2190 ca         1 LJ1      -0.118500
     14 CAG          5.2250    -1.0030     0.2370 ca         1 LJ1      -0.129500
     15 CAF          5.7380     0.2770     0.0830 ca         1 LJ1      -0.125000
     16 CAH          4.8630     1.3450    -0.0900 ca         1 LJ1      -0.129500
     17 CAJ          3.4940     1.1370    -0.1080 ca         1 LJ1      -0.118500
     18 HAA         -4.7370     2.3270    -0.8420 hc         1 LJ1       0.042200
     19 HAAA        -4.7480     2.2520     0.9190 hc         1 LJ1       0.042200
     20 HAAB        -3.5390     3.2090     0.0840 hc         1 LJ1       0.042200
     21 HAK         -1.3940     2.2870     0.0520 ha         1 LJ1       0.130000
     22 HOAC        -5.5060     0.3340    -0.0420 ho         1 LJ1       0.427000
     23 HAB         -3.9800    -2.8420    -1.0560 hc         1 LJ1       0.042200
     24 HABA        -2.5580    -3.4370    -0.2030 hc         1 LJ1       0.042200
     25 HABB        -3.9850    -2.9280     0.6950 hc         1 LJ1       0.042200
     26 HAL         -0.7760    -1.9460    -0.1220 ha         1 LJ1       0.130000
     27 HAE          0.7950     1.5320    -0.0380 ha         1 LJ1       0.119000
     28 HAD          1.2740    -1.4850     0.0910 ha         1 LJ1       0.121000
     29 HAI          3.4650    -2.2150     0.3410 ha         1 LJ1       0.128500
     30 HAG          5.8940    -1.8440     0.3720 ha         1 LJ1       0.129500
     31 HAF          6.8070     0.4430     0.0940 ha         1 LJ1       0.130000
     32 HAH          5.2520     2.3480    -0.2170 ha         1 LJ1       0.129500
     33 HAJ          2.8390     1.9870    -0.2520 ha         1 LJ1       0.128500
@<TRIPOS>BOND
     1     1     2 1   
     2     1    18 1   
     3     1    19 1   
     4     1    20 1   
     5     2     3 ar  
     6     2     4 ar  
     7     3     9 ar  
     8     3    21 1   
     9     4     5 1   
    10     4     6 ar  
    11     5    22 1   
    12     6     7 1   
    13     6     8 ar  
    14     7    23 1   
    15     7    24 1   
    16     7    25 1   
    17     8     9 ar  
    18     8    26 1   
    19     9    10 1   
    20    10    11 2   
    21    10    27 1   
    22    11    12 1   
    23    11    28 1   
    24    12    13 ar  
    25    12    17 ar  
    26    13    14 ar  
    27    13    29 1   
    28    14    15 ar  
    29    14    30 1   
    30    15    16 ar  
    31    15    31 1   
    32    16    17 ar  
    33    16    32 1   
    34    17    33 1   
@<TRIPOS>SUBSTRUCTURE
     1 LJ1         1 TEMP              0 ****  ****    0 ROOT
