@<TRIPOS>MOLECULE
LJ2
   27    28     1     0     0
SMALL
abcg2


@<TRIPOS>ATOM
      1 CAK         -0.4140    -1.4470    -0.0180 ca         1 LJ2      -0.023500
      2 CAM         -1.7750    -1.2090     0.0000 ca         1 LJ2      -0.095400
      3 BRAB        -2.9740    -2.6520    -0.1180 br         1 LJ2      -0.079100
      4 CAO         -2.2910     0.0840     0.1050 ca         1 LJ2       0.200100
      5 OAA         -3.6150     0.2370     0.1160 oh         1 LJ2      -0.505100
      6 CAN         -1.3620     1.1270     0.1930 ca         1 LJ2      -0.095400
      7 BRAC        -1.9930     2.8980     0.3470 br         1 LJ2      -0.079100
      8 CAL         -0.0000     0.8980     0.1750 ca         1 LJ2      -0.023500
      9 CAQ          0.5030    -0.3990     0.0660 ca         1 LJ2      -0.085800
     10 CAE          1.9300    -0.7070     0.0380 ce         1 LJ2      -0.153200
     11 CAD          2.9350     0.1760     0.0390 cf         1 LJ2      -0.143200
     12 CAP          4.3630    -0.1310     0.0130 ca         1 LJ2      -0.056800
     13 CAI          5.2730     0.9230    -0.0960 ca         1 LJ2      -0.096500
     14 CAG          6.6390     0.6910    -0.1300 ca         1 LJ2      -0.111500
     15 CAF          7.1270    -0.6040    -0.0510 ca         1 LJ2      -0.102000
     16 CAH          6.2340    -1.6640     0.0630 ca         1 LJ2      -0.111500
     17 CAJ          4.8710    -1.4320     0.0960 ca         1 LJ2      -0.096500
     18 HAK         -0.0520    -2.4640    -0.1030 ha         1 LJ2       0.132500
     19 HOAA        -3.8740     1.1640     0.1850 ho         1 LJ2       0.485000
     20 HAL          0.6740     1.7400     0.2500 ha         1 LJ2       0.132500
     21 HAE          2.1560    -1.7680     0.0080 ha         1 LJ2       0.175000
     22 HAD          2.7070     1.2370     0.0520 ha         1 LJ2       0.170000
     23 HAI          4.9030     1.9390    -0.1590 ha         1 LJ2       0.111000
     24 HAG          7.3240     1.5240    -0.2180 ha         1 LJ2       0.113500
     25 HAF          8.1920    -0.7890    -0.0750 ha         1 LJ2       0.114000
     26 HAH          6.6050    -2.6790     0.1300 ha         1 LJ2       0.113500
     27 HAJ          4.1990    -2.2750     0.1920 ha         1 LJ2       0.111000
@<TRIPOS>BOND
     1     1     2 ar  
     2     1     9 ar  
     3     1    18 1   
     4     2     3 1   
     5     2     4 ar  
     6     4     5 1   
     7     4     6 ar  
     8     5    19 1   
     9     6     7 1   
    10     6     8 ar  
    11     8     9 ar  
    12     8    20 1   
    13     9    10 1   
    14    10    11 2   
    15    10    21 1   
    16    11    12 1   
    17    11    22 1   
    18    12    13 ar  
    19    12    17 ar  
    20    13    14 ar  
    21    13    23 1   
    22    14    15 ar  
    23    14    24 1   
    24    15    16 ar  
    25    15    25 1   
    26    16    17 ar  
    27    16    26 1   
    28    17    27 1   
@<TRIPOS>SUBSTRUCTURE
     1 LJ2         1 TEMP              0 ****  ****    0 ROOT
