@<TRIPOS>MOLECULE
LJ2
   27    28     1     0     0
SMALL
No Charge or Current Charge


@<TRIPOS>ATOM
      1 CAK         -0.4740    -1.4880    -0.0230 ca         1 LJ2      -0.023500
      2 CAM         -1.8600    -1.2460    -0.0170 ca         1 LJ2      -0.095400
      3 BrAB        -3.0620    -2.7350    -0.1710 br         1 LJ2      -0.079100
      4 CAO         -2.3470     0.0690     0.0990 ca         1 LJ2       0.200100
      5 OAA         -3.6920     0.3080     0.1050 oh         1 LJ2      -0.505100
      6 CAN         -1.4390     1.1390     0.2120 ca         1 LJ2      -0.095400
      7 BrAC        -2.0630     2.9470     0.3790 br         1 LJ2      -0.079100
      8 CAL         -0.0530     0.8950     0.2060 ca         1 LJ2      -0.023500
      9 CAQ          0.4420    -0.4210     0.0860 ca         1 LJ2      -0.085800
     10 CAE          1.9060    -0.7150     0.0780 ce         1 LJ2      -0.153200
     11 CAD          2.9590     0.1510    -0.0020 cf         1 LJ2      -0.143200
     12 CAP          4.4100    -0.1290    -0.0130 ca         1 LJ2      -0.056800
     13 CAI          5.3180     0.9460    -0.1140 ca         1 LJ2      -0.096500
     14 CAG          6.7050     0.7150    -0.1270 ca         1 LJ2      -0.111500
     15 CAF          7.2010    -0.5950    -0.0380 ca         1 LJ2      -0.102000
     16 CAH          6.3070    -1.6730     0.0640 ca         1 LJ2      -0.111500
     17 CAJ          4.9200    -1.4440     0.0770 ca         1 LJ2      -0.096500
     18 HAK         -0.1130    -2.5090    -0.1150 ha         1 LJ2       0.132500
     19 HOAA        -3.8230     1.2760     0.1950 ho         1 LJ2       0.485000
     20 HAL          0.6260     1.7370     0.3030 ha         1 LJ2       0.132500
     21 HAE          2.1300    -1.7800     0.1390 ha         1 LJ2       0.175000
     22 HAD          2.7270     1.2130    -0.0770 ha         1 LJ2       0.170000
     23 HAI          4.9510     1.9670    -0.1850 ha         1 LJ2       0.111000
     24 HAG          7.3940     1.5530    -0.2060 ha         1 LJ2       0.113500
     25 HAF          8.2740    -0.7740    -0.0470 ha         1 LJ2       0.114000
     26 HAH          6.6890    -2.6900     0.1340 ha         1 LJ2       0.113500
     27 HAJ          4.2530    -2.2970     0.1570 ha         1 LJ2       0.111000
@<TRIPOS>BOND
     1     1     2 ar  
     2     1     9 ar  
     3     1    18 1   
     4     2     3 1   
     5     2     4 ar  
     6     4     5 1   
     7     4     6 ar  
     8     5    19 1   
     9     6     7 1   
    10     6     8 ar  
    11     8     9 ar  
    12     8    20 1   
    13     9    10 1   
    14    10    11 2   
    15    10    21 1   
    16    11    12 1   
    17    11    22 1   
    18    12    13 ar  
    19    12    17 ar  
    20    13    14 ar  
    21    13    23 1   
    22    14    15 ar  
    23    14    24 1   
    24    15    16 ar  
    25    15    25 1   
    26    16    17 ar  
    27    16    26 1   
    28    17    27 1   
@<TRIPOS>SUBSTRUCTURE
     1 LJ2         1 TEMP              0 ****  ****    0 ROOT
