@<TRIPOS>MOLECULE
LJ3
   23    24     1     0     0
SMALL
bcc


@<TRIPOS>ATOM
      1 CAI          0.6380    -1.1920     0.3920 ca         1 LJ3      -0.041500
      2 CAL         -0.7440    -1.2060     0.4220 ca         1 LJ3      -0.095900
      3 BRAB        -1.6460    -2.7860     0.9010 br         1 LJ3      -0.080100
      4 CAK         -1.5030    -0.0730     0.1150 ca         1 LJ3       0.200100
      5 OAA         -2.8300    -0.1720     0.1700 oh         1 LJ3      -0.466100
      6 CAM         -0.7930     1.0820    -0.2270 ca         1 LJ3      -0.095900
      7 BRAC        -1.7460     2.6500    -0.6690 br         1 LJ3      -0.080100
      8 CAJ          0.5910     1.1060    -0.2620 ca         1 LJ3      -0.041500
      9 CAO          1.3290    -0.0320     0.0480 cp         1 LJ3      -0.070000
     10 CAN          2.8040    -0.0110     0.0110 cp         1 LJ3      -0.035000
     11 CAG          3.5130     1.1130     0.4380 ca         1 LJ3      -0.117500
     12 CAE          4.8990     1.1330     0.4010 ca         1 LJ3      -0.127000
     13 CAD          5.6030     0.0280    -0.0610 ca         1 LJ3      -0.122000
     14 CAF          4.9070    -1.0960    -0.4870 ca         1 LJ3      -0.127000
     15 CAH          3.5210    -1.1150    -0.4530 ca         1 LJ3      -0.117500
     16 HAI          1.1860    -2.0860     0.6580 ha         1 LJ3       0.154000
     17 HOAA        -3.2710     0.6510    -0.0780 ho         1 LJ3       0.447000
     18 HAJ          1.1000     2.0160    -0.5530 ha         1 LJ3       0.154000
     19 HAG          2.9810     1.9740     0.8230 ha         1 LJ3       0.132500
     20 HAE          5.4300     2.0110     0.7440 ha         1 LJ3       0.133000
     21 HAD          6.6840     0.0430    -0.0890 ha         1 LJ3       0.133000
     22 HAF          5.4440    -1.9600    -0.8570 ha         1 LJ3       0.133000
     23 HAH          2.9940    -1.9900    -0.8110 ha         1 LJ3       0.132500
@<TRIPOS>BOND
     1     1     2 ar  
     2     1     9 ar  
     3     1    16 1   
     4     2     3 1   
     5     2     4 ar  
     6     4     5 1   
     7     4     6 ar  
     8     5    17 1   
     9     6     7 1   
    10     6     8 ar  
    11     8     9 ar  
    12     8    18 1   
    13     9    10 1   
    14    10    11 ar  
    15    10    15 ar  
    16    11    12 ar  
    17    11    19 1   
    18    12    13 ar  
    19    12    20 1   
    20    13    14 ar  
    21    13    21 1   
    22    14    15 ar  
    23    14    22 1   
    24    15    23 1   
@<TRIPOS>SUBSTRUCTURE
     1 LJ3         1 TEMP              0 ****  ****    0 ROOT
