@<TRIPOS>MOLECULE
LJ3
   23    24     1     0     0
SMALL
No Charge or Current Charge


@<TRIPOS>ATOM
      1 CAI          0.6110    -1.2300     0.3810 ca         1 LJ3      -0.023500
      2 CAL         -0.7940    -1.2590     0.4170 ca         1 LJ3      -0.095900
      3 BrAB        -1.6780    -2.8980     0.8820 br         1 LJ3      -0.080100
      4 CAK         -1.5320    -0.0970     0.1200 ca         1 LJ3       0.200100
      5 OAA         -2.8980    -0.1210     0.1540 oh         1 LJ3      -0.505100
      6 CAM         -0.8540     1.0900    -0.2140 ca         1 LJ3      -0.095900
      7 BrAC        -1.8220     2.6950    -0.6310 br         1 LJ3      -0.080100
      8 CAJ          0.5520     1.1150    -0.2480 ca         1 LJ3      -0.023500
      9 CAO          1.3130    -0.0440     0.0480 cp         1 LJ3      -0.070000
     10 CAN          2.8100    -0.0160     0.0100 cp         1 LJ3      -0.035000
     11 CAG          3.5320     1.1340     0.4180 ca         1 LJ3      -0.099500
     12 CAE          4.9370     1.1600     0.3830 ca         1 LJ3      -0.109000
     13 CAD          5.6500     0.0360    -0.0620 ca         1 LJ3      -0.104000
     14 CAF          4.9570    -1.1140    -0.4720 ca         1 LJ3      -0.109000
     15 CAH          3.5520    -1.1400    -0.4350 ca         1 LJ3      -0.099500
     16 HAI          1.1620    -2.1350     0.6270 ha         1 LJ3       0.136000
     17 HOAA        -3.2170     0.7760    -0.0810 ho         1 LJ3       0.486000
     18 HAJ          1.0560     2.0390    -0.5220 ha         1 LJ3       0.136000
     19 HAG          3.0000     2.0110     0.7790 ha         1 LJ3       0.114500
     20 HAE          5.4720     2.0520     0.7040 ha         1 LJ3       0.115000
     21 HAD          6.7380     0.0560    -0.0900 ha         1 LJ3       0.115000
     22 HAF          5.5080    -1.9850    -0.8200 ha         1 LJ3       0.115000
     23 HAH          3.0360    -2.0360    -0.7700 ha         1 LJ3       0.114500
@<TRIPOS>BOND
     1     1     2 ar  
     2     1     9 ar  
     3     1    16 1   
     4     2     3 1   
     5     2     4 ar  
     6     4     5 1   
     7     4     6 ar  
     8     5    17 1   
     9     6     7 1   
    10     6     8 ar  
    11     8     9 ar  
    12     8    18 1   
    13     9    10 1   
    14    10    11 ar  
    15    10    15 ar  
    16    11    12 ar  
    17    11    19 1   
    18    12    13 ar  
    19    12    20 1   
    20    13    14 ar  
    21    13    21 1   
    22    14    15 ar  
    23    14    22 1   
    24    15    23 1   
@<TRIPOS>SUBSTRUCTURE
     1 LJ3         1 TEMP              0 ****  ****    0 ROOT
