@<TRIPOS>MOLECULE
LJ4
   24    25     1     0     0
SMALL
bcc


@<TRIPOS>ATOM
      1 CAI          0.7430     0.2230    -0.1390 ca         1 LJ4      -0.104000
      2 CAL         -0.3780     1.0420    -0.0920 ca         1 LJ4      -0.062900
      3 BRAB        -0.1210     2.9120    -0.1070 br         1 LJ4      -0.077100
      4 CAP         -1.6750     0.5360    -0.0330 ca         1 LJ4       0.167100
      5 OAA         -2.7940     1.2640     0.0180 oh         1 LJ4      -0.469100
      6 CAM         -1.7980    -0.8580    -0.0230 ca         1 LJ4      -0.062900
      7 BRAC        -3.5210    -1.6040     0.0590 br         1 LJ4      -0.077100
      8 CAJ         -0.7020    -1.6960    -0.0670 ca         1 LJ4      -0.104000
      9 CAO          0.5760    -1.1520    -0.1240 ca         1 LJ4       0.103100
     10 OAK          1.6030    -2.0400    -0.1730 os         1 LJ4      -0.249200
     11 CAN          2.8940    -1.5730    -0.0880 ca         1 LJ4       0.087100
     12 CAG          3.4500    -1.3180     1.1570 ca         1 LJ4      -0.133500
     13 CAE          4.7670    -0.8880     1.2340 ca         1 LJ4      -0.119000
     14 CAD          5.5170    -0.7130     0.0780 ca         1 LJ4      -0.125000
     15 CAF          4.9470    -0.9720    -1.1610 ca         1 LJ4      -0.119000
     16 CAH          3.6280    -1.4000    -1.2510 ca         1 LJ4      -0.133500
     17 HAI          1.7290     0.6660    -0.1870 ha         1 LJ4       0.165500
     18 HOAA        -2.6150     2.2130     0.0100 ho         1 LJ4       0.444000
     19 HAJ         -0.8260    -2.7710    -0.0600 ha         1 LJ4       0.165500
     20 HAG          2.8620    -1.4610     2.0550 ha         1 LJ4       0.148000
     21 HAE          5.2070    -0.6910     2.2030 ha         1 LJ4       0.137000
     22 HAD          6.5440    -0.3790     0.1430 ha         1 LJ4       0.136000
     23 HAF          5.5270    -0.8400    -2.0650 ha         1 LJ4       0.137000
     24 HAH          3.1780    -1.6060    -2.2140 ha         1 LJ4       0.148000
@<TRIPOS>BOND
     1     1     2 ar  
     2     1     9 ar  
     3     1    17 1   
     4     2     3 1   
     5     2     4 ar  
     6     4     5 1   
     7     4     6 ar  
     8     5    18 1   
     9     6     7 1   
    10     6     8 ar  
    11     8     9 ar  
    12     8    19 1   
    13     9    10 1   
    14    10    11 1   
    15    11    12 ar  
    16    11    16 ar  
    17    12    13 ar  
    18    12    20 1   
    19    13    14 ar  
    20    13    21 1   
    21    14    15 ar  
    22    14    22 1   
    23    15    16 ar  
    24    15    23 1   
    25    16    24 1   
@<TRIPOS>SUBSTRUCTURE
     1 LJ4         1 TEMP              0 ****  ****    0 ROOT
