@<TRIPOS>MOLECULE
LJ4
   24    25     1     0     0
SMALL
No Charge or Current Charge


@<TRIPOS>ATOM
      1 CAI          0.6170     0.3880    -0.4080 ca         1 LJ4      -0.086000
      2 CAL         -0.5160     1.1350    -0.0370 ca         1 LJ4      -0.062900
      3 BrAB        -0.3780     3.0470     0.0520 br         1 LJ4      -0.077100
      4 CAP         -1.7300     0.4820     0.2610 ca         1 LJ4       0.167100
      5 OAA         -2.8310     1.2080     0.6210 oh         1 LJ4      -0.508100
      6 CAM         -1.8020    -0.9250     0.1790 ca         1 LJ4      -0.062900
      7 BrAC        -3.4360    -1.8540     0.5680 br         1 LJ4      -0.077100
      8 CAJ         -0.6680    -1.6700    -0.1910 ca         1 LJ4      -0.086000
      9 CAO          0.5430    -1.0170    -0.4740 ca         1 LJ4       0.103100
     10 OAK          1.6350    -1.7700    -0.8460 os         1 LJ4      -0.249200
     11 CAN          2.9210    -1.4630    -0.4620 ca         1 LJ4       0.087100
     12 CAG          3.2000    -0.9910     0.8370 ca         1 LJ4      -0.115500
     13 CAE          4.5240    -0.6970     1.2070 ca         1 LJ4      -0.101000
     14 CAD          5.5700    -0.8800     0.2850 ca         1 LJ4      -0.107000
     15 CAF          5.2930    -1.3630    -1.0060 ca         1 LJ4      -0.101000
     16 CAH          3.9690    -1.6580    -1.3770 ca         1 LJ4      -0.115500
     17 HAI          1.5460     0.9000    -0.6460 ha         1 LJ4       0.147500
     18 HOAA        -2.5820     2.1570     0.6170 ho         1 LJ4       0.483000
     19 HAJ         -0.7230    -2.7530    -0.2560 ha         1 LJ4       0.147500
     20 HAG          2.3970    -0.8580     1.5580 ha         1 LJ4       0.130000
     21 HAE          4.7400    -0.3300     2.2090 ha         1 LJ4       0.119000
     22 HAD          6.5940    -0.6520     0.5730 ha         1 LJ4       0.118000
     23 HAF          6.1030    -1.5090    -1.7170 ha         1 LJ4       0.119000
     24 HAH          3.7540    -2.0330    -2.3750 ha         1 LJ4       0.130000
@<TRIPOS>BOND
     1     1     2 ar  
     2     1     9 ar  
     3     1    17 1   
     4     2     3 1   
     5     2     4 ar  
     6     4     5 1   
     7     4     6 ar  
     8     5    18 1   
     9     6     7 1   
    10     6     8 ar  
    11     8     9 ar  
    12     8    19 1   
    13     9    10 1   
    14    10    11 1   
    15    11    12 ar  
    16    11    16 ar  
    17    12    13 ar  
    18    12    20 1   
    19    13    14 ar  
    20    13    21 1   
    21    14    15 ar  
    22    14    22 1   
    23    15    16 ar  
    24    15    23 1   
    25    16    24 1   
@<TRIPOS>SUBSTRUCTURE
     1 LJ4         1 TEMP              0 ****  ****    0 ROOT
