@<TRIPOS>MOLECULE
LJ5
   27    28     1     0     0
SMALL
No Charge or Current Charge


@<TRIPOS>ATOM
      1 CAJ         -0.2670     1.0130     0.0420 ca         1 LJ5      -0.075500
      2 CAO         -1.6720     1.0780     0.0040 ca         1 LJ5      -0.067400
      3 BrAC        -2.5290     2.7740     0.2800 br         1 LJ5      -0.076600
      4 CAR         -2.4320    -0.0830    -0.2340 ca         1 LJ5       0.172100
      5 OAB         -3.7980    -0.0170    -0.2700 oh         1 LJ5      -0.508100
      6 CAP         -1.7740    -1.3110    -0.4360 ca         1 LJ5      -0.067400
      7 BrAD        -2.7670    -2.9200    -0.7670 br         1 LJ5      -0.076600
      8 CAK         -0.3700    -1.3740    -0.3990 ca         1 LJ5      -0.075500
      9 CAN          0.3980    -0.2180    -0.1570 ca         1 LJ5      -0.054000
     10 NAL          1.8150    -0.3630    -0.1360 ns         1 LJ5      -0.141000
     11 CAM          2.8480     0.5230     0.1570 c          1 LJ5       0.621700
     12 OAA          2.6570     1.6860     0.4970 o          1 LJ5      -0.578100
     13 CAQ          4.2560    -0.0380     0.0380 ca         1 LJ5      -0.157600
     14 CAH          5.3630     0.7960     0.3240 ca         1 LJ5      -0.071000
     15 CAF          6.6770     0.3080     0.2230 ca         1 LJ5      -0.117500
     16 CAE          6.9090    -1.0200    -0.1650 ca         1 LJ5      -0.084000
     17 CAG          5.8230    -1.8600    -0.4520 ca         1 LJ5      -0.117500
     18 CAI          4.5060    -1.3780    -0.3540 ca         1 LJ5      -0.071000
     19 HAJ          0.2820     1.9320     0.2210 ha         1 LJ5       0.148500
     20 HOAB        -4.0590     0.9150    -0.1090 ho         1 LJ5       0.484000
     21 HAK          0.1230    -2.3320    -0.5570 ha         1 LJ5       0.148500
     22 HNAL         2.1300    -1.2900    -0.3850 hn         1 LJ5       0.156000
     23 HAH          5.2100     1.8300     0.6270 ha         1 LJ5       0.124000
     24 HAF          7.5170     0.9620     0.4470 ha         1 LJ5       0.119500
     25 HAE          7.9270    -1.3960    -0.2420 ha         1 LJ5       0.118000
     26 HAG          6.0020    -2.8900    -0.7540 ha         1 LJ5       0.119500
     27 HAI          3.6940    -2.0640    -0.5860 ha         1 LJ5       0.124000
@<TRIPOS>BOND
     1     1     2 ar  
     2     1     9 ar  
     3     1    19 1   
     4     2     3 1   
     5     2     4 ar  
     6     4     5 1   
     7     4     6 ar  
     8     5    20 1   
     9     6     7 1   
    10     6     8 ar  
    11     8     9 ar  
    12     8    21 1   
    13     9    10 1   
    14    10    11 1   
    15    10    22 1   
    16    11    12 2   
    17    11    13 1   
    18    13    14 ar  
    19    13    18 ar  
    20    14    15 ar  
    21    14    23 1   
    22    15    16 ar  
    23    15    24 1   
    24    16    17 ar  
    25    16    25 1   
    26    17    18 ar  
    27    17    26 1   
    28    18    27 1   
@<TRIPOS>SUBSTRUCTURE
     1 LJ5         1 TEMP              0 ****  ****    0 ROOT
