@<TRIPOS>MOLECULE
LJ5
   27    28     1     0     0
SMALL
bcc


@<TRIPOS>ATOM
      1 CAJ         -0.1700     1.0080    -0.1150 ca         1 LJ5      -0.093500
      2 CAO         -1.5540     1.0810    -0.1430 ca         1 LJ5      -0.067400
      3 BRAC        -2.3550     2.7900    -0.1500 br         1 LJ5      -0.076600
      4 CAR         -2.3730    -0.0480    -0.1650 ca         1 LJ5       0.172100
      5 OAB         -3.7080    -0.0390    -0.1930 oh         1 LJ5      -0.469100
      6 CAP         -1.7200    -1.2830    -0.1540 ca         1 LJ5      -0.067400
      7 BRAD        -2.7590    -2.8490    -0.1810 br         1 LJ5      -0.076600
      8 CAK         -0.3440    -1.3850    -0.1250 ca         1 LJ5      -0.093500
      9 CAN          0.4500    -0.2380    -0.1070 ca         1 LJ5       0.038600
     10 NAL          1.8330    -0.4340    -0.0930 ns         1 LJ5      -0.467100
     11 CAM          2.8220     0.4900    -0.0000 c          1 LJ5       0.688700
     12 OAA          2.6210     1.6840     0.1410 o          1 LJ5      -0.578100
     13 CAQ          4.2070    -0.0620    -0.0640 ca         1 LJ5      -0.157600
     14 CAH          5.2190     0.6400     0.5890 ca         1 LJ5      -0.089000
     15 CAF          6.5250     0.1770     0.5570 ca         1 LJ5      -0.135500
     16 CAE          6.8370    -0.9810    -0.1450 ca         1 LJ5      -0.102000
     17 CAG          5.8380    -1.6730    -0.8140 ca         1 LJ5      -0.135500
     18 CAI          4.5270    -1.2190    -0.7730 ca         1 LJ5      -0.089000
     19 HAJ          0.4140     1.9130    -0.0980 ha         1 LJ5       0.166500
     20 HOAB        -4.0670     0.8570    -0.2240 ho         1 LJ5       0.445000
     21 HAK          0.1220    -2.3620    -0.1200 ha         1 LJ5       0.166500
     22 HNAL         2.1190    -1.4010    -0.1040 hn         1 LJ5       0.322500
     23 HAH          4.9830     1.5450     1.1320 ha         1 LJ5       0.142000
     24 HAF          7.3000     0.7210     1.0810 ha         1 LJ5       0.137500
     25 HAE          7.8570    -1.3390    -0.1740 ha         1 LJ5       0.136000
     26 HAG          6.0760    -2.5670    -1.3750 ha         1 LJ5       0.137500
     27 HAI          3.7710    -1.7640    -1.3260 ha         1 LJ5       0.142000
@<TRIPOS>BOND
     1     1     2 ar  
     2     1     9 ar  
     3     1    19 1   
     4     2     3 1   
     5     2     4 ar  
     6     4     5 1   
     7     4     6 ar  
     8     5    20 1   
     9     6     7 1   
    10     6     8 ar  
    11     8     9 ar  
    12     8    21 1   
    13     9    10 1   
    14    10    11 1   
    15    10    22 1   
    16    11    12 2   
    17    11    13 1   
    18    13    14 ar  
    19    13    18 ar  
    20    14    15 ar  
    21    14    23 1   
    22    15    16 ar  
    23    15    24 1   
    24    16    17 ar  
    25    16    25 1   
    26    17    18 ar  
    27    17    26 1   
    28    18    27 1   
@<TRIPOS>SUBSTRUCTURE
     1 LJ5         1 TEMP              0 ****  ****    0 ROOT
