@<TRIPOS>MOLECULE
LJ6
   33    33     1     0     0
SMALL
No Charge or Current Charge


@<TRIPOS>ATOM
      1 N1          69.2820     5.3870    82.7750 nc         1 LJ6      -0.360300
      2 C4          67.4170     4.1120    83.0920 cd         1 LJ6      -0.230300
      3 C5          68.8280     4.1870    83.0910 cd         1 LJ6       0.289300
      4 C6          69.7880     3.0730    83.4080 c3         1 LJ6      -0.134400
      5 C7          67.0000     5.3660    82.7580 cc         1 LJ6       0.209300
      6 C8          65.6240     5.9410    82.5900 c3         1 LJ6      -0.141400
      7 C1          67.0610     1.5710    81.2380 c3         1 LJ6      -0.081100
      8 C2          65.9820     2.2320    82.1350 c3         1 LJ6      -0.137700
      9 C3          66.5630     2.9050    83.4090 c3         1 LJ6       0.013900
     10 O1          68.0950     6.1680    82.5520 os         1 LJ6      -0.097700
     11 C9          64.7750     1.2930    82.4150 c          1 LJ6       0.596100
     12 O2          63.6710     1.6080    81.9860 o          1 LJ6      -0.617100
     13 N2          64.9380     0.0400    83.0660 n          1 LJ6      -0.408800
     14 C11         63.7980    -0.9070    83.1050 c3         1 LJ6       0.088800
     15 H1          70.8310     3.3960    83.3120 hc         1 LJ6       0.056033
     16 H2          69.6420     2.7160    84.4340 hc         1 LJ6       0.056033
     17 H3          69.6390     2.2240    82.7320 hc         1 LJ6       0.056033
     18 H4          65.6470     7.0360    82.6380 hc         1 LJ6       0.066033
     19 H5          65.2000     5.6520    81.6220 hc         1 LJ6       0.066033
     20 H6          64.9520     5.5830    83.3780 hc         1 LJ6       0.066033
     21 H7          65.9360    -1.2300    84.4520 h1         1 LJ6       0.042200
     22 H8          67.0030    -0.1170    83.5810 h1         1 LJ6       0.042200
     23 H9          65.9320     0.4940    84.8810 h1         1 LJ6       0.042200
     24 H11         67.6260     0.7980    81.7680 hc         1 LJ6       0.041033
     25 H12         66.5950     1.1080    80.3590 hc         1 LJ6       0.041033
     26 H13         65.5600     3.0480    81.5350 hc         1 LJ6       0.077700
     27 H14         65.7340     3.2090    84.0600 hc         1 LJ6       0.052200
     28 H15         67.1550     2.1870    83.9850 hc         1 LJ6       0.052200
     29 H16         64.1390    -1.9070    83.4000 h1         1 LJ6       0.042200
     30 H17         63.0500    -0.5550    83.8270 h1         1 LJ6       0.042200
     31 H18         63.3360    -0.9790    82.1130 h1         1 LJ6       0.042200
     32 H10         67.7750     2.3200    80.8780 hc         1 LJ6       0.041033
     33 C10         66.0180    -0.2130    84.0470 c3         1 LJ6       0.088800
@<TRIPOS>BOND
     1     1     3 2   
     2     1    10 1   
     3     2     3 1   
     4     2     5 2   
     5     2     9 1   
     6     3     4 1   
     7     4    15 1   
     8     4    16 1   
     9     4    17 1   
    10     5     6 1   
    11     5    10 1   
    12     6    18 1   
    13     6    19 1   
    14     6    20 1   
    15     7     8 1   
    16     7    24 1   
    17     7    25 1   
    18     7    32 1   
    19     8     9 1   
    20     8    11 1   
    21     8    26 1   
    22     9    27 1   
    23     9    28 1   
    24    11    12 2   
    25    11    13 1   
    26    13    14 1   
    27    13    33 1   
    28    14    29 1   
    29    14    30 1   
    30    14    31 1   
    31    21    33 1   
    32    22    33 1   
    33    23    33 1   
@<TRIPOS>SUBSTRUCTURE
     1 LJ6         1 TEMP              0 ****  ****    0 ROOT
