@<TRIPOS>MOLECULE
LJ6
   33    33     1     0     0
SMALL
abcg2


@<TRIPOS>ATOM
      1 N1          69.2340     5.3020    82.7660 nc         1 LJ6      -0.360300
      2 C4          67.3470     4.0890    83.0930 cd         1 LJ6      -0.230300
      3 C5          68.7750     4.1310    83.1310 cd         1 LJ6       0.289300
      4 C6          69.7090     3.0400    83.5300 c3         1 LJ6      -0.134400
      5 C7          66.9920     5.3320    82.6720 cc         1 LJ6       0.209300
      6 C8          65.6850     5.9790    82.4130 c3         1 LJ6      -0.141400
      7 C1          67.0670     1.5850    81.2910 c3         1 LJ6      -0.081100
      8 C2          65.9550     2.1960    82.1500 c3         1 LJ6      -0.137700
      9 C3          66.4550     2.9330    83.4180 c3         1 LJ6       0.013900
     10 O1          68.0990     6.0780    82.4670 os         1 LJ6      -0.097700
     11 C9          64.7870     1.2520    82.4470 c          1 LJ6       0.596100
     12 O2          63.6630     1.5670    82.0300 o          1 LJ6      -0.617100
     13 N2          64.9600     0.0990    83.1300 n          1 LJ6      -0.408800
     14 C11         63.7900    -0.7420    83.3630 c3         1 LJ6       0.088800
     15 H1          70.7390     3.3940    83.5170 hc         1 LJ6       0.056033
     16 H2          69.4700     2.6830    84.5340 hc         1 LJ6       0.056033
     17 H3          69.6200     2.1910    82.8510 hc         1 LJ6       0.056033
     18 H4          65.5910     6.9050    82.9840 hc         1 LJ6       0.066033
     19 H5          65.5770     6.2240    81.3540 hc         1 LJ6       0.066033
     20 H6          64.8740     5.3090    82.6960 hc         1 LJ6       0.066033
     21 H7          66.4480    -1.3400    83.4510 h1         1 LJ6       0.042200
     22 H8          67.0010     0.3260    83.6140 h1         1 LJ6       0.042200
     23 H9          66.0070    -0.3900    84.8800 h1         1 LJ6       0.042200
     24 H11         67.6800     0.8590    81.8230 hc         1 LJ6       0.041033
     25 H12         66.6390     1.0890    80.4180 hc         1 LJ6       0.041033
     26 H13         65.4750     2.9590    81.5370 hc         1 LJ6       0.077700
     27 H14         65.5830     3.2910    83.9690 hc         1 LJ6       0.052200
     28 H15         66.9850     2.2550    84.0860 hc         1 LJ6       0.052200
     29 H16         64.1300    -1.7460    83.6120 h1         1 LJ6       0.042200
     30 H17         63.1860    -0.3580    84.1910 h1         1 LJ6       0.042200
     31 H18         63.1690    -0.7800    82.4710 h1         1 LJ6       0.042200
     32 H10         67.7270     2.3770    80.9330 hc         1 LJ6       0.041033
     33 C10         66.1740    -0.3430    83.8010 c3         1 LJ6       0.088800
@<TRIPOS>BOND
     1     1     3 2   
     2     1    10 1   
     3     2     3 1   
     4     2     5 2   
     5     2     9 1   
     6     3     4 1   
     7     4    15 1   
     8     4    16 1   
     9     4    17 1   
    10     5     6 1   
    11     5    10 1   
    12     6    18 1   
    13     6    19 1   
    14     6    20 1   
    15     7     8 1   
    16     7    24 1   
    17     7    25 1   
    18     7    32 1   
    19     8     9 1   
    20     8    11 1   
    21     8    26 1   
    22     9    27 1   
    23     9    28 1   
    24    11    12 2   
    25    11    13 1   
    26    13    14 1   
    27    13    33 1   
    28    14    29 1   
    29    14    30 1   
    30    14    31 1   
    31    21    33 1   
    32    22    33 1   
    33    23    33 1   
@<TRIPOS>SUBSTRUCTURE
     1 LJ6         1 TEMP              0 ****  ****    0 ROOT
