@<TRIPOS>MOLECULE
LJ7
   35    36     1     0     0
SMALL
No Charge or Current Charge


@<TRIPOS>ATOM
      1 N1           3.4710    -0.4250    -0.0710 na         1 LJ7       0.146800
      2 N3          -0.2990     1.3000    -0.0710 ns         1 LJ7      -0.499900
      3 C4           4.3020     0.6880    -0.1580 cc         1 LJ7      -0.188000
      4 C5           3.4300     1.7370    -0.1960 cd         1 LJ7      -0.168000
      5 C6           2.1150     1.2200    -0.1310 cd         1 LJ7       0.190500
      6 C7           0.8560     2.0500    -0.1460 c          1 LJ7       0.532600
      7 C8          -1.6490     1.8490    -0.0670 c3         1 LJ7       0.157300
      8 C10         -3.1980     0.1500    -1.1480 ca         1 LJ7      -0.068000
      9 C13         -4.0890    -0.7370     1.3670 ca         1 LJ7      -0.155500
     10 C1           4.6540    -2.2750    -1.2760 c3         1 LJ7      -0.109100
     11 C11         -4.1530    -0.8790    -1.0620 ca         1 LJ7      -0.155500
     12 C12         -4.5950    -1.3180     0.1950 ca         1 LJ7       0.178000
     13 C14         -3.1340     0.2910     1.2840 ca         1 LJ7      -0.068000
     14 C2           3.9010    -1.8380     0.0000 c3         1 LJ7       0.095300
     15 C3           4.7220    -2.1250     1.2770 c3         1 LJ7      -0.109100
     16 C9          -2.6860     0.7400     0.0250 ca         1 LJ7      -0.129300
     17 N2           2.1260    -0.1090    -0.0530 nc         1 LJ7      -0.527800
     18 O1           0.8290     3.2740    -0.2160 o          1 LJ7      -0.607100
     19 H1          -0.1760     0.2950    -0.0160 hn         1 LJ7       0.336500
     20 H2           5.3830     0.6350    -0.1840 h4         1 LJ7       0.156000
     21 H3           3.6940     2.7880    -0.2640 ha         1 LJ7       0.162000
     22 H4          -1.7560     2.5320     0.7870 h1         1 LJ7       0.057700
     23 H5          -1.8030     2.4290    -0.9870 h1         1 LJ7       0.057700
     24 H6          -2.8550     0.4870    -2.1250 ha         1 LJ7       0.121500
     25 H7          -4.4360    -1.0840     2.3370 ha         1 LJ7       0.133500
     26 H8           4.8960    -3.3430    -1.2360 hc         1 LJ7       0.050200
     27 H9           4.0360    -2.0990    -2.1650 hc         1 LJ7       0.050200
     28 H10          5.5900    -1.7140    -1.3920 hc         1 LJ7       0.050200
     29 H11         -4.5490    -1.3350    -1.9660 ha         1 LJ7       0.133500
     30 H12         -2.7410     0.7380     2.1950 ha         1 LJ7       0.121500
     31 H13          2.9900    -2.4480     0.0600 h1         1 LJ7       0.082700
     32 H14          5.6610    -1.5580     1.2760 hc         1 LJ7       0.050200
     33 H15          4.1520    -1.8460     2.1710 hc         1 LJ7       0.050200
     34 H16          4.9650    -3.1920     1.3480 hc         1 LJ7       0.050200
     35 F1          -5.5120    -2.3070     0.2770 f          1 LJ7      -0.178000
@<TRIPOS>BOND
     1     1     3 1   
     2     1    14 1   
     3     1    17 1   
     4     2     6 1   
     5     2     7 1   
     6     2    19 1   
     7     3     4 2   
     8     3    20 1   
     9     4     5 1   
    10     4    21 1   
    11     5     6 1   
    12     5    17 2   
    13     6    18 2   
    14     7    16 1   
    15     7    22 1   
    16     7    23 1   
    17     8    11 ar  
    18     8    16 ar  
    19     8    24 1   
    20     9    12 ar  
    21     9    13 ar  
    22     9    25 1   
    23    10    14 1   
    24    10    26 1   
    25    10    27 1   
    26    10    28 1   
    27    11    12 ar  
    28    11    29 1   
    29    12    35 1   
    30    13    16 ar  
    31    13    30 1   
    32    14    15 1   
    33    14    31 1   
    34    15    32 1   
    35    15    33 1   
    36    15    34 1   
@<TRIPOS>SUBSTRUCTURE
     1 LJ7         1 TEMP              0 ****  ****    0 ROOT
