@<TRIPOS>MOLECULE
LJ7
   35    36     1     0     0
SMALL
bcc


@<TRIPOS>ATOM
      1 N1           3.4470    -0.4150     0.1560 na         1 LJ7       0.125400
      2 N3          -0.2630     1.2100    -0.0780 ns         1 LJ7      -0.566900
      3 C4           4.2370     0.6780     0.1910 cc         1 LJ7      -0.155300
      4 C5           3.4090     1.7720     0.1210 cd         1 LJ7      -0.251300
      5 C6           2.1220     1.2200     0.0390 cd         1 LJ7       0.255800
      6 C7           0.8470     1.9610    -0.0560 c          1 LJ7       0.599600
      7 C8          -1.5860     1.7910    -0.2090 c3         1 LJ7       0.157300
      8 C10         -3.0260    -0.0250    -1.1850 ca         1 LJ7      -0.086000
      9 C13         -4.1450    -0.5750     1.2990 ca         1 LJ7      -0.173500
     10 C1           4.1620    -2.2260    -1.3280 c3         1 LJ7      -0.109100
     11 C11         -3.9690    -1.0360    -1.0690 ca         1 LJ7      -0.173500
     12 C12         -4.5110    -1.2910     0.1760 ca         1 LJ7       0.142900
     13 C14         -3.1990     0.4310     1.1610 ca         1 LJ7      -0.086000
     14 C2           3.8610    -1.8170     0.1070 c3         1 LJ7       0.066000
     15 C3           5.0370    -2.0690     1.0370 c3         1 LJ7      -0.109100
     16 C9          -2.6310     0.7200    -0.0770 ca         1 LJ7      -0.129300
     17 N2           2.1690    -0.1040     0.0570 nc         1 LJ7      -0.527800
     18 O1           0.8320     3.1850    -0.1080 o          1 LJ7      -0.607100
     19 H1          -0.1720     0.2060    -0.0570 hn         1 LJ7       0.336500
     20 H2           5.3100     0.6100     0.2630 h4         1 LJ7       0.174000
     21 H3           3.6900     2.8120     0.1330 ha         1 LJ7       0.180000
     22 H4          -1.7310     2.5530     0.5590 h1         1 LJ7       0.057700
     23 H5          -1.6810     2.2920    -1.1770 h1         1 LJ7       0.057700
     24 H6          -2.5990     0.1880    -2.1570 ha         1 LJ7       0.139500
     25 H7          -4.5910    -0.7920     2.2610 ha         1 LJ7       0.151500
     26 H8           4.4110    -3.2860    -1.3690 hc         1 LJ7       0.050200
     27 H9           3.3020    -2.0560    -1.9760 hc         1 LJ7       0.050200
     28 H10          5.0100    -1.6650    -1.7230 hc         1 LJ7       0.050200
     29 H11         -4.2760    -1.6130    -1.9310 ha         1 LJ7       0.151500
     30 H12         -2.9060     1.0020     2.0330 ha         1 LJ7       0.139500
     31 H13          2.9980    -2.3770     0.4690 h1         1 LJ7       0.082700
     32 H14          5.9450    -1.5720     0.6920 hc         1 LJ7       0.050200
     33 H15          4.8240    -1.7370     2.0530 hc         1 LJ7       0.050200
     34 H16          5.2440    -3.1380     1.0660 hc         1 LJ7       0.050200
     35 F1          -5.4270    -2.2660     0.2970 f          1 LJ7      -0.142900
@<TRIPOS>BOND
     1     1     3 1   
     2     1    14 1   
     3     1    17 1   
     4     2     6 1   
     5     2     7 1   
     6     2    19 1   
     7     3     4 2   
     8     3    20 1   
     9     4     5 1   
    10     4    21 1   
    11     5     6 1   
    12     5    17 2   
    13     6    18 2   
    14     7    16 1   
    15     7    22 1   
    16     7    23 1   
    17     8    11 ar  
    18     8    16 ar  
    19     8    24 1   
    20     9    12 ar  
    21     9    13 ar  
    22     9    25 1   
    23    10    14 1   
    24    10    26 1   
    25    10    27 1   
    26    10    28 1   
    27    11    12 ar  
    28    11    29 1   
    29    12    35 1   
    30    13    16 ar  
    31    13    30 1   
    32    14    15 1   
    33    14    31 1   
    34    15    32 1   
    35    15    33 1   
    36    15    34 1   
@<TRIPOS>SUBSTRUCTURE
     1 LJ7         1 TEMP              0 ****  ****    0 ROOT
