@<TRIPOS>MOLECULE
LJ9
   49    53     1     0     0
SMALL
No Charge or Current Charge


@<TRIPOS>ATOM
      1 C01         -3.3590    -3.8840     1.7890 c3         1 LJ9      -0.086100
      2 C02         -3.5950    -3.3010     0.3800 c3         1 LJ9      -0.087700
      3 C03         -2.9150    -1.9760     0.1650 cc         1 LJ9       0.380900
      4 N04         -3.5870    -0.8140     0.1340 nd         1 LJ9      -0.522100
      5 N05         -2.5710     0.1200    -0.0580 na         1 LJ9       0.154800
      6 C06         -1.3150    -0.4460    -0.1470 ca         1 LJ9       0.025800
      7 C07         -0.0520     0.1220    -0.3490 ca         1 LJ9      -0.225000
      8 C08          1.0660    -0.7420    -0.4040 ca         1 LJ9       0.358000
      9 C09          0.8680    -2.1400    -0.2520 ca         1 LJ9      -0.203000
     10 C10         -0.4200    -2.6810    -0.0550 ca         1 LJ9      -0.001000
     11 C11         -1.4920    -1.7830    -0.0090 ca         1 LJ9      -0.271900
     12 N12          2.3670    -0.2200    -0.6010 nh         1 LJ9      -0.803400
     13 C13          3.4070    -0.8980    -1.4140 c5         1 LJ9       0.208300
     14 C14          4.7140    -0.1620    -0.9890 c5         1 LJ9      -0.076700
     15 C15          5.3410    -0.9600     0.1980 c5         1 LJ9       0.154800
     16 N16          5.8310     0.1090     1.0910 n7         1 LJ9      -0.858400
     17 C17          4.6610     1.0070     1.1690 c5         1 LJ9       0.154800
     18 C18          4.2650     1.1840    -0.3290 c5         1 LJ9      -0.076700
     19 C19          2.7100     1.2100    -0.4090 c5         1 LJ9       0.208300
     20 C20         -2.8130     1.4910    -0.1410 ca         1 LJ9       0.039800
     21 C21         -2.2870     2.3660     0.8310 ca         1 LJ9      -0.118500
     22 C22         -2.5280     3.7490     0.7430 ca         1 LJ9      -0.099000
     23 C23         -3.2970     4.2620    -0.3150 ca         1 LJ9      -0.120000
     24 C24         -3.8260     3.3950    -1.2850 ca         1 LJ9      -0.099000
     25 C25         -3.5860     2.0120    -1.1980 ca         1 LJ9      -0.118500
     26 H01         -3.7420    -3.2010     2.5570 hc         1 LJ9       0.036367
     27 H01A        -3.8750    -4.8460     1.8960 hc         1 LJ9       0.036367
     28 H01B        -2.2900    -4.0450     1.9710 hc         1 LJ9       0.036367
     29 H02         -3.2340    -4.0170    -0.3680 hc         1 LJ9       0.054200
     30 H02A        -4.6730    -3.1980     0.2130 hc         1 LJ9       0.054200
     31 H07          0.0530     1.1940    -0.4720 ha         1 LJ9       0.124000
     32 H09          1.7160    -2.8160    -0.2740 ha         1 LJ9       0.113000
     33 H10         -0.5690    -3.7530     0.0580 ha         1 LJ9       0.116000
     34 H13          3.4720    -1.9800    -1.2370 h1         1 LJ9       0.046700
     35 H13A         3.2100    -0.7470    -2.4850 h1         1 LJ9       0.046700
     36 H14          5.4200    -0.0240    -1.8150 hc         1 LJ9       0.070700
     37 H15          4.5910    -1.5710     0.7210 h1         1 LJ9       0.040200
     38 H15A         6.1500    -1.6270    -0.1300 h1         1 LJ9       0.040200
     39 HN16         6.0490    -0.2740     2.0200 hn         1 LJ9       0.417000
     40 H17          3.8580     0.5290     1.7520 h1         1 LJ9       0.040200
     41 H17A         4.9050     1.9630     1.6530 h1         1 LJ9       0.040200
     42 H18          4.7360     2.0650    -0.7800 hc         1 LJ9       0.070700
     43 H19          2.3760     1.8040    -1.2710 h1         1 LJ9       0.046700
     44 H19A         2.2560     1.6380     0.4960 h1         1 LJ9       0.046700
     45 H21         -1.6930     1.9730     1.6520 ha         1 LJ9       0.130000
     46 H22         -2.1190     4.4200     1.4950 ha         1 LJ9       0.115000
     47 H23         -3.4830     5.3320    -0.3820 ha         1 LJ9       0.115000
     48 H24         -4.4220     3.7930    -2.1040 ha         1 LJ9       0.115000
     49 H25         -3.9970     1.3430    -1.9510 ha         1 LJ9       0.130000
@<TRIPOS>BOND
     1     1     2 1   
     2     1    26 1   
     3     1    27 1   
     4     1    28 1   
     5     2     3 1   
     6     2    29 1   
     7     2    30 1   
     8     3     4 2   
     9     3    11 1   
    10     4     5 1   
    11     5     6 1   
    12     5    20 1   
    13     6     7 ar  
    14     6    11 ar  
    15     7     8 ar  
    16     7    31 1   
    17     8     9 ar  
    18     8    12 1   
    19     9    10 ar  
    20     9    32 1   
    21    10    11 ar  
    22    10    33 1   
    23    12    13 1   
    24    12    19 1   
    25    13    14 1   
    26    13    34 1   
    27    13    35 1   
    28    14    15 1   
    29    14    18 1   
    30    14    36 1   
    31    15    16 1   
    32    15    37 1   
    33    15    38 1   
    34    16    17 1   
    35    16    39 1   
    36    17    18 1   
    37    17    40 1   
    38    17    41 1   
    39    18    19 1   
    40    18    42 1   
    41    19    43 1   
    42    19    44 1   
    43    20    21 ar  
    44    20    25 ar  
    45    21    22 ar  
    46    21    45 1   
    47    22    23 ar  
    48    22    46 1   
    49    23    24 ar  
    50    23    47 1   
    51    24    25 ar  
    52    24    48 1   
    53    25    49 1   
@<TRIPOS>SUBSTRUCTURE
     1 LJ9         1 TEMP              0 ****  ****    0 ROOT
