@<TRIPOS>MOLECULE
LJ9
   49    53     1     0     0
SMALL
abcg2


@<TRIPOS>ATOM
      1 C01         -3.5740    -3.9420     1.3410 c3         1 LJ9      -0.086100
      2 C02         -3.7680    -3.1700     0.0370 c3         1 LJ9      -0.087700
      3 C03         -2.9410    -1.9320    -0.0250 cc         1 LJ9       0.380900
      4 N04         -3.4750    -0.7420     0.0110 nd         1 LJ9      -0.522100
      5 N05         -2.4640     0.1600    -0.0190 na         1 LJ9       0.154800
      6 C06         -1.2470    -0.4590    -0.0930 ca         1 LJ9       0.025800
      7 C07          0.0470     0.0510    -0.2130 ca         1 LJ9      -0.225000
      8 C08          1.1050    -0.8560    -0.2910 ca         1 LJ9       0.358000
      9 C09          0.8240    -2.2550    -0.2870 ca         1 LJ9      -0.203000
     10 C10         -0.4570    -2.7350    -0.1940 ca         1 LJ9      -0.001000
     11 C11         -1.5210    -1.8330    -0.0930 ca         1 LJ9      -0.271900
     12 N12          2.4050    -0.4220    -0.3550 nh         1 LJ9      -0.803400
     13 C13          3.4640    -1.2520    -0.9090 c5         1 LJ9       0.208300
     14 C14          4.7250    -0.4140    -0.7330 c5         1 LJ9      -0.076700
     15 C15          5.5110    -0.7270     0.5450 c5         1 LJ9       0.154800
     16 N16          5.9630     0.5810     0.9830 n7         1 LJ9      -0.858400
     17 C17          4.7920     1.4290     0.8490 c5         1 LJ9       0.154800
     18 C18          4.2360     1.0420    -0.5270 c5         1 LJ9      -0.076700
     19 C19          2.7150     0.9740    -0.5940 c5         1 LJ9       0.208300
     20 C20         -2.7630     1.5310    -0.0280 ca         1 LJ9       0.039800
     21 C21         -1.9650     2.4340     0.6690 ca         1 LJ9      -0.118500
     22 C22         -2.2680     3.7880     0.6380 ca         1 LJ9      -0.099000
     23 C23         -3.3750     4.2470    -0.0610 ca         1 LJ9      -0.120000
     24 C24         -4.1800     3.3380    -0.7370 ca         1 LJ9      -0.099000
     25 C25         -3.8770     1.9860    -0.7300 ca         1 LJ9      -0.118500
     26 H01         -3.8500    -3.3330     2.2020 hc         1 LJ9       0.036367
     27 H01A        -4.1970    -4.8370     1.3510 hc         1 LJ9       0.036367
     28 H01B        -2.5390    -4.2590     1.4720 hc         1 LJ9       0.036367
     29 H02         -3.5180    -3.8170    -0.8080 hc         1 LJ9       0.054200
     30 H02A        -4.8190    -2.8980    -0.0790 hc         1 LJ9       0.054200
     31 H07          0.2160     1.1160    -0.2610 ha         1 LJ9       0.124000
     32 H09          1.6350    -2.9650    -0.3570 ha         1 LJ9       0.113000
     33 H10         -0.6310    -3.8040    -0.2060 ha         1 LJ9       0.116000
     34 H13          3.5440    -2.2020    -0.3800 h1         1 LJ9       0.046700
     35 H13A         3.2760    -1.4810    -1.9660 h1         1 LJ9       0.046700
     36 H14          5.3710    -0.5010    -1.6060 hc         1 LJ9       0.070700
     37 H15          4.8460    -1.2150     1.2750 h1         1 LJ9       0.040200
     38 H15A         6.3500    -1.4020     0.3700 h1         1 LJ9       0.040200
     39 HN16         6.3110     0.5630     1.9330 hn         1 LJ9       0.417000
     40 H17          4.0310     1.2310     1.6210 h1         1 LJ9       0.040200
     41 H17A         5.0550     2.4860     0.9160 h1         1 LJ9       0.040200
     42 H18          4.6260     1.7090    -1.2960 hc         1 LJ9       0.070700
     43 H19          2.3410     1.3050    -1.5730 h1         1 LJ9       0.046700
     44 H19A         2.2490     1.6130     0.1610 h1         1 LJ9       0.046700
     45 H21         -1.1240     2.0880     1.2540 ha         1 LJ9       0.130000
     46 H22         -1.6410     4.4820     1.1830 ha         1 LJ9       0.115000
     47 H23         -3.6130     5.3030    -0.0760 ha         1 LJ9       0.115000
     48 H24         -5.0480     3.6840    -1.2820 ha         1 LJ9       0.115000
     49 H25         -4.5000     1.2850    -1.2680 ha         1 LJ9       0.130000
@<TRIPOS>BOND
     1     1     2 1   
     2     1    26 1   
     3     1    27 1   
     4     1    28 1   
     5     2     3 1   
     6     2    29 1   
     7     2    30 1   
     8     3     4 2   
     9     3    11 1   
    10     4     5 1   
    11     5     6 1   
    12     5    20 1   
    13     6     7 ar  
    14     6    11 ar  
    15     7     8 ar  
    16     7    31 1   
    17     8     9 ar  
    18     8    12 1   
    19     9    10 ar  
    20     9    32 1   
    21    10    11 ar  
    22    10    33 1   
    23    12    13 1   
    24    12    19 1   
    25    13    14 1   
    26    13    34 1   
    27    13    35 1   
    28    14    15 1   
    29    14    18 1   
    30    14    36 1   
    31    15    16 1   
    32    15    37 1   
    33    15    38 1   
    34    16    17 1   
    35    16    39 1   
    36    17    18 1   
    37    17    40 1   
    38    17    41 1   
    39    18    19 1   
    40    18    42 1   
    41    19    43 1   
    42    19    44 1   
    43    20    21 ar  
    44    20    25 ar  
    45    21    22 ar  
    46    21    45 1   
    47    22    23 ar  
    48    22    46 1   
    49    23    24 ar  
    50    23    47 1   
    51    24    25 ar  
    52    24    48 1   
    53    25    49 1   
@<TRIPOS>SUBSTRUCTURE
     1 LJ9         1 TEMP              0 ****  ****    0 ROOT
