@<TRIPOS>MOLECULE
LJA
   25    25     1     0     0
SMALL
bcc


@<TRIPOS>ATOM
      1 N1           2.6770    -0.2860    -0.0500 ns         1 LJA      -0.473100
      2 N3          -4.0690     1.7070    -0.3780 nt         1 LJA      -0.671000
      3 C4           1.0850    -2.0470     0.1150 ca         1 LJA      -0.215000
      4 C5          -0.2190    -2.5010     0.1740 ca         1 LJA      -0.076000
      5 C6          -1.2980    -1.6290     0.1310 ca         1 LJA      -0.171000
      6 C7          -1.0500    -0.2630     0.0150 ca         1 LJA       0.112600
      7 C8           0.2650     0.2090    -0.0440 ca         1 LJA      -0.215000
      8 C2           3.2150     0.9560    -0.1630 c          1 LJA       0.677100
      9 C3           1.3360    -0.6770     0.0090 ca         1 LJA       0.099600
     10 C9          -3.3550     0.5530    -0.4130 c          1 LJA       0.786100
     11 O1           2.5560     1.9780    -0.2380 o          1 LJA      -0.587100
     12 O2          -3.8200    -0.5040    -0.8070 o          1 LJA      -0.619100
     13 H1           3.3350    -1.0480    -0.0000 hn         1 LJA       0.316500
     14 H2          -3.7680     2.4880     0.1810 hn         1 LJA       0.309500
     15 H3          -5.0650     1.6300    -0.5010 hn         1 LJA       0.309500
     16 H4           1.9070    -2.7510     0.1530 ha         1 LJA       0.127000
     17 H5          -0.4040    -3.5630     0.2640 ha         1 LJA       0.132000
     18 H6          -2.3030    -2.0130     0.1950 ha         1 LJA       0.163000
     19 H7           0.4360     1.2700    -0.1380 ha         1 LJA       0.162000
     20 H8           5.1770     0.0180    -0.3820 hc         1 LJA       0.063700
     21 H9           5.0720     1.7070    -0.8980 hc         1 LJA       0.063700
     22 H10          5.0740     1.3090     0.8140 hc         1 LJA       0.063700
     23 H11         -1.7340     1.6510     0.1490 hn         1 LJA       0.316500
     24 N2          -2.0530     0.7060    -0.0000 ns         1 LJA      -0.493100
     25 C1           4.7210     0.9820    -0.1650 c3         1 LJA      -0.183100
@<TRIPOS>BOND
     1     1     8 1   
     2     1     9 1   
     3     1    13 1   
     4     2    10 1   
     5     2    14 1   
     6     2    15 1   
     7     3     4 ar  
     8     3     9 ar  
     9     3    16 1   
    10     4     5 ar  
    11     4    17 1   
    12     5     6 ar  
    13     5    18 1   
    14     6     7 ar  
    15     6    24 1   
    16     7     9 ar  
    17     7    19 1   
    18     8    11 2   
    19     8    25 1   
    20    10    12 2   
    21    10    24 1   
    22    20    25 1   
    23    21    25 1   
    24    22    25 1   
    25    23    24 1   
@<TRIPOS>SUBSTRUCTURE
     1 LJA         1 TEMP              0 ****  ****    0 ROOT
