@<TRIPOS>MOLECULE
LJA
   25    25     1     0     0
SMALL
No Charge or Current Charge


@<TRIPOS>ATOM
      1 N1           2.7050    -0.2270    -0.0210 ns         1 LJA      -0.147000
      2 N3          -4.1630     1.6990    -0.3210 nt         1 LJA      -0.604000
      3 C4           1.1160    -2.0380     0.1440 ca         1 LJA      -0.197000
      4 C5          -0.1940    -2.5410     0.1770 ca         1 LJA      -0.058000
      5 C6          -1.2860    -1.6670     0.0700 ca         1 LJA      -0.153000
      6 C7          -1.0750    -0.2790    -0.0710 ca         1 LJA       0.020000
      7 C8           0.2450     0.2120    -0.1030 ca         1 LJA      -0.197000
      8 C2           3.2880     1.0280    -0.1420 c          1 LJA       0.610100
      9 C3           1.3510    -0.6600     0.0040 ca         1 LJA       0.007000
     10 C9          -3.5060     0.5290    -0.1900 c          1 LJA       0.652100
     11 O1           2.6680     2.0790    -0.2600 o          1 LJA      -0.587100
     12 O2          -4.1240    -0.5180    -0.0900 o          1 LJA      -0.619100
     13 H1           3.3730    -0.9820     0.0670 hn         1 LJA       0.150000
     14 H2          -3.6530     2.5650    -0.4040 hn         1 LJA       0.309500
     15 H3          -5.1720     1.6940    -0.3360 hn         1 LJA       0.309500
     16 H4           1.9530    -2.7280     0.2280 ha         1 LJA       0.109000
     17 H5          -0.3630    -3.6110     0.2860 ha         1 LJA       0.114000
     18 H6          -2.2860    -2.0880     0.0990 ha         1 LJA       0.145000
     19 H7           0.3910     1.2810    -0.2120 ha         1 LJA       0.144000
     20 H8           5.1730     0.3290    -0.9010 hc         1 LJA       0.063700
     21 H9           5.2520     2.0060    -0.2150 hc         1 LJA       0.063700
     22 H10          5.1490     0.5040     0.7960 hc         1 LJA       0.063700
     23 H11         -1.8090     1.6210    -0.2790 hn         1 LJA       0.150000
     24 N2          -2.1290     0.6670    -0.1850 ns         1 LJA      -0.167000
     25 C1           4.8140     1.0070    -0.1180 c3         1 LJA      -0.183100
@<TRIPOS>BOND
     1     1     8 1   
     2     1     9 1   
     3     1    13 1   
     4     2    10 1   
     5     2    14 1   
     6     2    15 1   
     7     3     4 ar  
     8     3     9 ar  
     9     3    16 1   
    10     4     5 ar  
    11     4    17 1   
    12     5     6 ar  
    13     5    18 1   
    14     6     7 ar  
    15     6    24 1   
    16     7     9 ar  
    17     7    19 1   
    18     8    11 2   
    19     8    25 1   
    20    10    12 2   
    21    10    24 1   
    22    20    25 1   
    23    21    25 1   
    24    22    25 1   
    25    23    24 1   
@<TRIPOS>SUBSTRUCTURE
     1 LJA         1 TEMP              0 ****  ****    0 ROOT
