@<TRIPOS>MOLECULE
LJC
   43    44     1     0     0
SMALL
abcg2


@<TRIPOS>ATOM
      1 C1         -18.3130    11.5190    21.3770 c3         1 LJC       0.146900
      2 O1         -19.4360    12.2330    20.9100 os         1 LJC      -0.322100
      3 C2         -20.2990    12.7290    21.8210 ca         1 LJC       0.110100
      4 C3         -20.1660    12.5990    23.1930 ca         1 LJC      -0.156000
      5 C4         -21.1060    13.1440    24.0710 ca         1 LJC      -0.066300
      6 C5         -20.9040    12.9400    25.5510 c3         1 LJC       0.235600
      7 O2         -21.6500    13.9070    26.2440 oh         1 LJC      -0.660000
      8 C6         -21.2470    11.5000    26.0240 c3         1 LJC      -0.052400
      9 C7         -22.6880    11.0830    25.7440 c3         1 LJC       0.173600
     10 O3         -22.8160    10.7140    24.3910 oh         1 LJC      -0.655000
     11 C8         -20.8890    11.3740    27.4870 ca         1 LJC      -0.089300
     12 C9         -21.7940    11.6480    28.5020 ca         1 LJC      -0.112000
     13 C10        -21.4040    11.5730    29.8370 ca         1 LJC      -0.177000
     14 C11        -20.1100    11.2340    30.1840 ca         1 LJC       0.112100
     15 O4         -19.6730    11.1420    31.4570 oh         1 LJC      -0.513100
     16 C12        -19.1790    10.9620    29.1650 ca         1 LJC       0.116100
     17 O5         -17.9400    10.6370    29.5820 os         1 LJC      -0.319100
     18 C13        -16.9510    10.3830    28.6060 c3         1 LJC       0.144900
     19 C14        -19.5780    11.0380    27.8400 ca         1 LJC      -0.166000
     20 C15        -22.1770    13.8450    23.5500 ca         1 LJC      -0.071000
     21 C16        -22.3180    13.9850    22.1710 ca         1 LJC      -0.184000
     22 C17        -21.3970    13.4350    21.2980 ca         1 LJC       0.112100
     23 O6         -21.4780    13.5400    19.9540 oh         1 LJC      -0.516100
     24 H1         -17.7570    11.2040    20.4970 h1         1 LJC       0.037367
     25 H2         -17.6620    12.1390    22.0000 h1         1 LJC       0.037367
     26 H3         -18.6000    10.6310    21.9490 h1         1 LJC       0.037367
     27 H4         -19.3200    12.0650    23.6070 ha         1 LJC       0.112000
     28 H5         -19.8300    13.0710    25.7560 h1         1 LJC       0.032700
     29 H6         -21.4650    13.8160    27.1860 ho         1 LJC       0.451000
     30 H7         -20.5930    10.8200    25.4670 hc         1 LJC       0.075700
     31 H8         -23.3720    11.9000    26.0050 h1         1 LJC       0.024200
     32 H9         -22.9440    10.2410    26.4020 h1         1 LJC       0.024200
     33 H10        -23.7520    10.6730    24.1800 ho         1 LJC       0.444000
     34 H11        -22.8210    11.9070    28.2790 ha         1 LJC       0.119000
     35 H12        -22.1270    11.7860    30.6180 ha         1 LJC       0.116000
     36 H13        -20.3900    11.3450    32.0680 ho         1 LJC       0.460000
     37 H14        -16.0340    10.1600    29.1460 h1         1 LJC       0.040700
     38 H15        -17.2060     9.5270    27.9760 h1         1 LJC       0.040700
     39 H16        -16.7790    11.2510    27.9640 h1         1 LJC       0.040700
     40 H17        -18.8690    10.8260    27.0490 ha         1 LJC       0.119000
     41 H18        -22.9230    14.2860    24.1970 ha         1 LJC       0.127000
     42 H19        -23.1640    14.5360    21.7730 ha         1 LJC       0.111000
     43 H20        -22.2620    14.0470    19.7130 ho         1 LJC       0.457000
@<TRIPOS>BOND
     1     1     2 1   
     2     1    24 1   
     3     1    25 1   
     4     1    26 1   
     5     2     3 1   
     6     3     4 ar  
     7     3    22 ar  
     8     4     5 ar  
     9     4    27 1   
    10     5     6 1   
    11     5    20 ar  
    12     6     7 1   
    13     6     8 1   
    14     6    28 1   
    15     7    29 1   
    16     8     9 1   
    17     8    11 1   
    18     8    30 1   
    19     9    10 1   
    20     9    31 1   
    21     9    32 1   
    22    10    33 1   
    23    11    12 ar  
    24    11    19 ar  
    25    12    13 ar  
    26    12    34 1   
    27    13    14 ar  
    28    13    35 1   
    29    14    15 1   
    30    14    16 ar  
    31    15    36 1   
    32    16    17 1   
    33    16    19 ar  
    34    17    18 1   
    35    18    37 1   
    36    18    38 1   
    37    18    39 1   
    38    19    40 1   
    39    20    21 ar  
    40    20    41 1   
    41    21    22 ar  
    42    21    42 1   
    43    22    23 1   
    44    23    43 1   
@<TRIPOS>SUBSTRUCTURE
     1 LJC         1 TEMP              0 ****  ****    0 ROOT
