@<TRIPOS>MOLECULE
LJC
   43    44     1     0     0
SMALL
No Charge or Current Charge


@<TRIPOS>ATOM
      1 C1         -18.0210    11.7410    21.3200 c3         1 LJC       0.146900
      2 O1         -19.2410    12.3500    20.8630 os         1 LJC      -0.322100
      3 C2         -20.2280    12.7860    21.7330 ca         1 LJC       0.110100
      4 C3         -20.0940    12.6620    23.1360 ca         1 LJC      -0.156000
      5 C4         -21.1140    13.1120    24.0000 ca         1 LJC      -0.066300
      6 C5         -20.9310    12.9620    25.5170 c3         1 LJC       0.235600
      7 O2         -21.6170    13.9980    26.2360 oh         1 LJC      -0.660000
      8 C6         -21.3250    11.5620    26.0760 c3         1 LJC      -0.052400
      9 C7         -22.8140    11.1670    25.8490 c3         1 LJC       0.173600
     10 O3         -23.0340    10.7110    24.5080 oh         1 LJC      -0.655000
     11 C8         -20.9060    11.4460    27.5510 ca         1 LJC      -0.089300
     12 C9         -21.7870    11.7830    28.6000 ca         1 LJC      -0.112000
     13 C10        -21.3740    11.6810    29.9380 ca         1 LJC      -0.177000
     14 C11        -20.0760    11.2430    30.2480 ca         1 LJC       0.112100
     15 O4         -19.7000    11.1530    31.5630 oh         1 LJC      -0.513100
     16 C12        -19.1760    10.9070    29.2090 ca         1 LJC       0.116100
     17 O5         -17.8990    10.4830    29.5420 os         1 LJC      -0.319100
     18 C13        -16.9210    10.1220    28.5500 c3         1 LJC       0.144900
     19 C14        -19.6010    11.0140    27.8630 ca         1 LJC      -0.166000
     20 C15        -22.2770    13.6910    23.4480 ca         1 LJC      -0.071000
     21 C16        -22.4180    13.8190    22.0560 ca         1 LJC      -0.184000
     22 C17        -21.4010    13.3710    21.1980 ca         1 LJC       0.112100
     23 O6         -21.5650    13.5080    19.8440 oh         1 LJC      -0.516100
     24 H1         -17.3870    11.4730    20.4660 h1         1 LJC       0.037367
     25 H2         -17.4560    12.4310    21.9590 h1         1 LJC       0.037367
     26 H3         -18.2310    10.8250    21.8880 h1         1 LJC       0.037367
     27 H4         -19.2050    12.2170    23.5730 ha         1 LJC       0.112000
     28 H5         -19.8550    13.0780    25.7090 h1         1 LJC       0.032700
     29 H6         -21.4230    13.8420    27.1850 ho         1 LJC       0.451000
     30 H7         -20.7330    10.8280    25.5150 hc         1 LJC       0.075700
     31 H8         -23.4680    12.0170    26.0820 h1         1 LJC       0.024200
     32 H9         -23.0700    10.3560    26.5450 h1         1 LJC       0.024200
     33 H10        -23.9870    10.4850    24.4360 ho         1 LJC       0.444000
     34 H11        -22.7970    12.1300    28.3880 ha         1 LJC       0.119000
     35 H12        -22.0700    11.9440    30.7320 ha         1 LJC       0.116000
     36 H13        -20.4570    11.4260    32.1230 ho         1 LJC       0.460000
     37 H14        -15.9850     9.8170    29.0340 h1         1 LJC       0.040700
     38 H15        -17.2760     9.2830    27.9390 h1         1 LJC       0.040700
     39 H16        -16.7020    10.9720    27.8910 h1         1 LJC       0.040700
     40 H17        -18.9260    10.7650    27.0490 ha         1 LJC       0.119000
     41 H18        -23.0770    14.0380    24.0970 ha         1 LJC       0.127000
     42 H19        -23.3230    14.2680    21.6520 ha         1 LJC       0.111000
     43 H20        -22.4340    13.9300    19.6770 ho         1 LJC       0.457000
@<TRIPOS>BOND
     1     1     2 1   
     2     1    24 1   
     3     1    25 1   
     4     1    26 1   
     5     2     3 1   
     6     3     4 ar  
     7     3    22 ar  
     8     4     5 ar  
     9     4    27 1   
    10     5     6 1   
    11     5    20 ar  
    12     6     7 1   
    13     6     8 1   
    14     6    28 1   
    15     7    29 1   
    16     8     9 1   
    17     8    11 1   
    18     8    30 1   
    19     9    10 1   
    20     9    31 1   
    21     9    32 1   
    22    10    33 1   
    23    11    12 ar  
    24    11    19 ar  
    25    12    13 ar  
    26    12    34 1   
    27    13    14 ar  
    28    13    35 1   
    29    14    15 1   
    30    14    16 ar  
    31    15    36 1   
    32    16    17 1   
    33    16    19 ar  
    34    17    18 1   
    35    18    37 1   
    36    18    38 1   
    37    18    39 1   
    38    19    40 1   
    39    20    21 ar  
    40    20    41 1   
    41    21    22 ar  
    42    21    42 1   
    43    22    23 1   
    44    23    43 1   
@<TRIPOS>SUBSTRUCTURE
     1 LJC         1 TEMP              0 ****  ****    0 ROOT
