@<TRIPOS>MOLECULE
LJD
   29    30     1     0     0
SMALL
No Charge or Current Charge


@<TRIPOS>ATOM
      1 N1           4.7800     0.9080     0.1170 na         1 LJD       0.134800
      2 N3           0.8230    -1.0810    -0.8330 ns         1 LJD      -0.500900
      3 C4           3.1060     0.6600    -1.1480 cc         1 LJD       0.268900
      4 C5           1.7770    -1.1200     0.1550 c          1 LJD       0.657700
      5 C6          -0.4130    -1.8630    -0.8290 c3         1 LJD       0.149300
      6 C7          -1.5770    -1.0490    -0.2820 ca         1 LJD      -0.116300
      7 C8          -1.8360    -1.0270     1.1030 ca         1 LJD      -0.088000
      8 C10         -3.7230     0.4650     0.7360 ca         1 LJD       0.125000
      9 C1           6.0650     1.4380     0.5930 c3         1 LJD       0.069900
     10 C11         -3.4700     0.4490    -0.6450 ca         1 LJD      -0.107500
     11 C12         -2.3980    -0.3060    -1.1540 ca         1 LJD      -0.088000
     12 C2           3.9920    -0.0560     0.7550 cd         1 LJD      -0.095000
     13 C3           2.9140    -0.2110    -0.0670 cc         1 LJD      -0.289600
     14 C9          -2.9080    -0.2720     1.6110 ca         1 LJD      -0.107500
     15 N2           4.2220     1.3550    -1.0760 nd         1 LJD      -0.525800
     16 O1           1.6840    -1.8510     1.1310 o          1 LJD      -0.622100
     17 Cl1         -5.0640     1.4100     1.3720 cl         1 LJD      -0.206000
     18 H1           0.9830    -0.4410    -1.5990 hn         1 LJD       0.313500
     19 H2           2.4570     0.8140    -2.0010 h4         1 LJD       0.036100
     20 H3          -0.6330    -2.1770    -1.8580 h1         1 LJD       0.065200
     21 H4          -0.2780    -2.7740    -0.2300 h1         1 LJD       0.065200
     22 H5          -1.2050    -1.5930     1.7860 ha         1 LJD       0.124500
     23 H6           6.8440     1.2310    -0.1500 h1         1 LJD       0.060367
     24 H7           5.9810     2.5220     0.7410 h1         1 LJD       0.060367
     25 H8           6.3340     0.9620     1.5430 h1         1 LJD       0.060367
     26 H9          -4.1020     1.0210    -1.3190 ha         1 LJD       0.130000
     27 H10         -2.2060    -0.3120    -2.2250 ha         1 LJD       0.124500
     28 H11          4.2570    -0.5250     1.6960 h4         1 LJD       0.172000
     29 H12         -3.1060    -0.2560     2.6800 ha         1 LJD       0.130000
@<TRIPOS>BOND
     1     1     9 1   
     2     1    12 1   
     3     1    15 1   
     4     2     4 1   
     5     2     5 1   
     6     2    18 1   
     7     3    13 1   
     8     3    15 2   
     9     3    19 1   
    10     4    13 1   
    11     4    16 2   
    12     5     6 1   
    13     5    20 1   
    14     5    21 1   
    15     6     7 ar  
    16     6    11 ar  
    17     7    14 ar  
    18     7    22 1   
    19     8    10 ar  
    20     8    14 ar  
    21     8    17 1   
    22     9    23 1   
    23     9    24 1   
    24     9    25 1   
    25    10    11 ar  
    26    10    26 1   
    27    11    27 1   
    28    12    13 2   
    29    12    28 1   
    30    14    29 1   
@<TRIPOS>SUBSTRUCTURE
     1 LJD         1 TEMP              0 ****  ****    0 ROOT
