@<TRIPOS>MOLECULE
LJD
   29    30     1     0     0
SMALL
bcc


@<TRIPOS>ATOM
      1 N1           4.7970     0.8470     0.2040 na         1 LJD       0.113400
      2 N3           0.7920    -0.9920    -0.9220 ns         1 LJD      -0.567900
      3 C4           3.2030     0.7670    -1.1750 cc         1 LJD       0.334200
      4 C5           1.7590    -1.0760     0.0120 c          1 LJD       0.724700
      5 C6          -0.4220    -1.7750    -0.9000 c3         1 LJD       0.149300
      6 C7          -1.5900    -1.0200    -0.3150 ca         1 LJD      -0.116300
      7 C8          -1.6430    -0.7360     1.0480 ca         1 LJD      -0.106000
      8 C10         -3.7180     0.4150     0.7500 ca         1 LJD       0.033400
      9 C1           6.0460     1.3070     0.7630 c3         1 LJD       0.040600
     10 C11         -3.6920     0.1440    -0.6070 ca         1 LJD      -0.125500
     11 C12         -2.6240    -0.5740    -1.1290 ca         1 LJD      -0.106000
     12 C2           3.9710    -0.0750     0.7040 cd         1 LJD      -0.062300
     13 C3           2.9000    -0.1690    -0.1660 cc         1 LJD      -0.354900
     14 C9          -2.7000    -0.0200     1.5870 ca         1 LJD      -0.125500
     15 N2           4.3480     1.3710    -0.9370 nd         1 LJD      -0.525800
     16 O1           1.7150    -1.8610     0.9540 o          1 LJD      -0.622100
     17 CL1         -5.0460     1.3080     1.4190 cl         1 LJD      -0.114400
     18 H1           0.8550    -0.2750    -1.6270 hn         1 LJD       0.313500
     19 H2           2.6390     1.0220    -2.0610 h4         1 LJD       0.036100
     20 H3          -0.6530    -2.0770    -1.9220 h1         1 LJD       0.065200
     21 H4          -0.2350    -2.6860    -0.3330 h1         1 LJD       0.065200
     22 H5          -0.8520    -1.0800     1.7020 ha         1 LJD       0.142500
     23 H6           6.8460     1.1850     0.0370 h1         1 LJD       0.060367
     24 H7           5.9710     2.3560     1.0430 h1         1 LJD       0.060367
     25 H8           6.2760     0.7200     1.6470 h1         1 LJD       0.060367
     26 H9          -4.4900     0.4850    -1.2540 ha         1 LJD       0.148000
     27 H10         -2.6040    -0.7870    -2.1910 ha         1 LJD       0.142500
     28 H11          4.1820    -0.5950     1.6240 h4         1 LJD       0.190000
     29 H12         -2.7320     0.1930     2.6470 ha         1 LJD       0.148000
@<TRIPOS>BOND
     1     1     9 1   
     2     1    12 1   
     3     1    15 1   
     4     2     4 1   
     5     2     5 1   
     6     2    18 1   
     7     3    13 1   
     8     3    15 2   
     9     3    19 1   
    10     4    13 1   
    11     4    16 2   
    12     5     6 1   
    13     5    20 1   
    14     5    21 1   
    15     6     7 ar  
    16     6    11 ar  
    17     7    14 ar  
    18     7    22 1   
    19     8    10 ar  
    20     8    14 ar  
    21     8    17 1   
    22     9    23 1   
    23     9    24 1   
    24     9    25 1   
    25    10    11 ar  
    26    10    26 1   
    27    11    27 1   
    28    12    13 2   
    29    12    28 1   
    30    14    29 1   
@<TRIPOS>SUBSTRUCTURE
     1 LJD         1 TEMP              0 ****  ****    0 ROOT
