@<TRIPOS>MOLECULE
LJE
   50    53     1     0     0
SMALL
bcc


@<TRIPOS>ATOM
      1 C1          -5.7740    -2.3000    -1.1450 ca         1 LJE      -0.142000
      2 F1          -9.0490    -0.0570    -0.0180 f          1 LJE      -0.231967
      3 N1           5.9200    -1.4230    -0.1170 nb         1 LJE      -0.688000
      4 O1           3.5200     0.0520     0.3450 os         1 LJE      -0.350400
      5 C2          -6.8790    -1.5060    -0.8800 ca         1 LJE      -0.057000
      6 F2          -7.8260     1.1340     1.2920 f          1 LJE      -0.231967
      7 N2           7.6900    -2.3840     1.1270 nb         1 LJE      -0.699000
      8 O2          -2.9290     0.5180     1.3960 o          1 LJE      -0.571100
      9 C3          -6.7120    -0.3080    -0.1960 ca         1 LJE      -0.205300
     10 F3          -7.9310     1.6050    -0.8020 f          1 LJE      -0.231967
     11 N3           3.5010     2.0280    -0.8050 nb         1 LJE      -0.739000
     12 C4          -5.4500     0.0940     0.2160 ca         1 LJE      -0.027000
     13 N4          -1.9460    -0.6400    -0.2970 ns         1 LJE      -0.465100
     14 C5          -4.3390    -0.6920    -0.0680 ca         1 LJE      -0.161600
     15 C6          -4.5100    -1.8980    -0.7450 ca         1 LJE      -0.078000
     16 C7          -7.8820     0.5880     0.0720 c3         1 LJE       0.722200
     17 C8          -3.0090    -0.2120     0.4240 c          1 LJE       0.687700
     18 C9           6.3240    -0.2020     0.2310 cp         1 LJE       0.521800
     19 C10          6.6200    -2.4430     0.3470 ca         1 LJE       0.646900
     20 C11          8.0910    -1.1660     1.4710 ca         1 LJE       0.434200
     21 C12          7.4350    -0.0240     1.0470 ca         1 LJE      -0.358600
     22 C13          5.5470     3.0880    -1.4190 ca         1 LJE      -0.290300
     23 C14          6.2570     2.0260    -0.8730 ca         1 LJE      -0.048000
     24 C15          5.5840     0.9550    -0.3050 cp         1 LJE      -0.295800
     25 C16          4.1830     1.0360    -0.2860 ca         1 LJE       0.684600
     26 C17          4.1680     3.0310    -1.3710 ca         1 LJE       0.457200
     27 C18          2.1590    -0.0620     0.1690 ca         1 LJE       0.085100
     28 C19          1.6620    -0.6570    -0.9890 ca         1 LJE      -0.037300
     29 C20          0.2880    -0.8160    -1.0870 ca         1 LJE      -0.181000
     30 C21         -0.5840    -0.4030    -0.0770 ca         1 LJE       0.073600
     31 C22         -0.0590     0.1830     1.0730 ca         1 LJE      -0.143000
     32 C23          1.3150     0.3490     1.1810 ca         1 LJE      -0.094000
     33 H1          -5.9010    -3.2420    -1.6600 ha         1 LJE       0.144000
     34 H2          -7.8570    -1.8360    -1.2010 ha         1 LJE       0.153000
     35 H4          -5.3150     1.0220     0.7560 ha         1 LJE       0.171000
     36 HN4         -2.1470    -1.1320    -1.1530 hn         1 LJE       0.319500
     37 H6          -3.6710    -2.5530    -0.9440 ha         1 LJE       0.137000
     38 H10          6.2830    -3.4330     0.0570 h5         1 LJE       0.050100
     39 H11          8.9630    -1.0950     2.1110 h4         1 LJE       0.025100
     40 H12          7.7690     0.9570     1.3510 ha         1 LJE       0.153000
     41 H13          6.0510     3.9250    -1.8790 ha         1 LJE       0.149000
     42 H14          7.3390     2.0190    -0.9140 ha         1 LJE       0.141000
     43 H17          3.5670     3.8250    -1.7980 h4         1 LJE       0.024100
     44 H20         -0.1170    -1.2790    -1.9800 ha         1 LJE       0.127000
     45 H22         -0.6910     0.5100     1.8810 ha         1 LJE       0.168000
     46 H23          1.7280     0.8000     2.0740 ha         1 LJE       0.147000
     47 H24          3.4320    -1.6580    -1.7050 hc         1 LJE       0.052367
     48 H24A         2.0430    -1.7450    -2.7960 hc         1 LJE       0.052367
     49 H24B         2.9650    -0.2560    -2.6510 hc         1 LJE       0.052367
     50 C24          2.5740    -1.1070    -2.0900 c3         1 LJE      -0.053800
@<TRIPOS>BOND
     1     1     5 ar  
     2     1    15 ar  
     3     1    33 1   
     4     2    16 1   
     5     3    18 ar  
     6     3    19 ar  
     7     4    25 1   
     8     4    27 1   
     9     5     9 ar  
    10     5    34 1   
    11     6    16 1   
    12     7    19 ar  
    13     7    20 ar  
    14     8    17 2   
    15     9    12 ar  
    16     9    16 1   
    17    10    16 1   
    18    11    25 ar  
    19    11    26 ar  
    20    12    14 ar  
    21    12    35 1   
    22    13    17 1   
    23    13    30 1   
    24    13    36 1   
    25    14    15 ar  
    26    14    17 1   
    27    15    37 1   
    28    18    21 ar  
    29    18    24 1   
    30    19    38 1   
    31    20    21 ar  
    32    20    39 1   
    33    21    40 1   
    34    22    23 ar  
    35    22    26 ar  
    36    22    41 1   
    37    23    24 ar  
    38    23    42 1   
    39    24    25 ar  
    40    26    43 1   
    41    27    28 ar  
    42    27    32 ar  
    43    28    29 ar  
    44    28    50 1   
    45    29    30 ar  
    46    29    44 1   
    47    30    31 ar  
    48    31    32 ar  
    49    31    45 1   
    50    32    46 1   
    51    47    50 1   
    52    48    50 1   
    53    49    50 1   
@<TRIPOS>SUBSTRUCTURE
     1 LJE         1 TEMP              0 ****  ****    0 ROOT
