@<TRIPOS>MOLECULE
LJE
   50    53     1     0     0
SMALL
No Charge or Current Charge


@<TRIPOS>ATOM
      1 C1          -5.7820    -1.7160    -1.8590 ca         1 LJE      -0.124000
      2 F1          -9.2560    -0.8590     0.3600 f          1 LJE      -0.110667
      3 N1           5.8440    -1.4490     0.2300 nb         1 LJE      -0.162000
      4 O1           3.5460     0.2190     0.4020 os         1 LJE      -0.350400
      5 C2          -6.9660    -1.3190    -1.2210 ca         1 LJE      -0.039000
      6 F2          -8.0630    -0.0720     1.9910 f          1 LJE      -0.110667
      7 N2           7.6650    -2.3900     1.4990 nb         1 LJE      -0.173000
      8 O2          -3.0840     0.6540     1.3840 o          1 LJE      -0.571100
      9 C3          -6.9130    -0.5190    -0.0610 ca         1 LJE      -0.205300
     10 F3          -8.5350     1.1910     0.2860 f          1 LJE      -0.110667
     11 N3           3.6630     2.1310    -0.9620 nb         1 LJE      -0.739000
     12 C4          -5.6550    -0.1150     0.4370 ca         1 LJE      -0.009000
     13 N4          -1.9900    -0.4730    -0.3010 ns         1 LJE      -0.139000
     14 C5          -4.4530    -0.5080    -0.1970 ca         1 LJE      -0.161600
     15 C6          -4.5330    -1.3190    -1.3550 ca         1 LJE      -0.060000
     16 C7          -8.1960    -0.0670     0.6450 c3         1 LJE       0.358300
     17 C8          -3.1260    -0.0490     0.3800 c          1 LJE       0.620700
     18 C9           6.3930    -0.2190     0.3120 cp         1 LJE       0.193500
     19 C10          6.4980    -2.4690     0.8250 ca         1 LJE       0.120900
     20 C11          8.2270    -1.1680     1.5800 ca         1 LJE       0.105900
     21 C12          7.6230    -0.0440     0.9910 ca         1 LJE      -0.210000
     22 C13          5.8070     2.9290    -1.7300 ca         1 LJE      -0.207000
     23 C14          6.4660     1.8740    -1.0870 ca         1 LJE      -0.030000
     24 C15          5.7040     0.9190    -0.3730 cp         1 LJE      -0.230500
     25 C16          4.2920     1.1030    -0.3460 ca         1 LJE       0.619300
     26 C17          4.4120     3.0180    -1.6450 ca         1 LJE       0.391900
     27 C18          2.1920     0.0570     0.2220 ca         1 LJE       0.085100
     28 C19          1.6870    -0.6580    -0.8860 ca         1 LJE      -0.037300
     29 C20          0.2920    -0.8100    -1.0250 ca         1 LJE      -0.163000
     30 C21         -0.5990    -0.2690    -0.0790 ca         1 LJE      -0.019000
     31 C22         -0.0760     0.4300     1.0320 ca         1 LJE      -0.125000
     32 C23          1.3130     0.5870     1.1790 ca         1 LJE      -0.076000
     33 H1          -5.8320    -2.3350    -2.7520 ha         1 LJE       0.126000
     34 H2          -7.9220    -1.6360    -1.6360 ha         1 LJE       0.135000
     35 H4          -5.6130     0.5150     1.3250 ha         1 LJE       0.153000
     36 HN4         -2.1870    -1.0390    -1.1150 hn         1 LJE       0.153000
     37 H6          -3.6410    -1.6500    -1.8820 ha         1 LJE       0.119000
     38 H10          6.0390    -3.4530     0.7520 h5         1 LJE       0.050100
     39 H11          9.1700    -1.0920     2.1190 h4         1 LJE       0.025100
     40 H12          8.0890     0.9340     1.0680 ha         1 LJE       0.135000
     41 H13          6.3650     3.6730    -2.2920 ha         1 LJE       0.131000
     42 H14          7.5490     1.7890    -1.1540 ha         1 LJE       0.123000
     43 H17          3.8780     3.8310    -2.1350 h4         1 LJE       0.024100
     44 H20         -0.1030    -1.3560    -1.8790 ha         1 LJE       0.109000
     45 H22         -0.7220     0.8560     1.7930 ha         1 LJE       0.150000
     46 H23          1.7100     1.1260     2.0350 ha         1 LJE       0.129000
     47 H24          3.4200    -1.8490    -1.4430 hc         1 LJE       0.052367
     48 H24A         2.0900    -1.9510    -2.5990 hc         1 LJE       0.052367
     49 H24B         3.0900    -0.4940    -2.5380 hc         1 LJE       0.052367
     50 C24          2.6220    -1.2710    -1.9230 c3         1 LJE      -0.053800
@<TRIPOS>BOND
     1     1     5 ar  
     2     1    15 ar  
     3     1    33 1   
     4     2    16 1   
     5     3    18 ar  
     6     3    19 ar  
     7     4    25 1   
     8     4    27 1   
     9     5     9 ar  
    10     5    34 1   
    11     6    16 1   
    12     7    19 ar  
    13     7    20 ar  
    14     8    17 2   
    15     9    12 ar  
    16     9    16 1   
    17    10    16 1   
    18    11    25 ar  
    19    11    26 ar  
    20    12    14 ar  
    21    12    35 1   
    22    13    17 1   
    23    13    30 1   
    24    13    36 1   
    25    14    15 ar  
    26    14    17 1   
    27    15    37 1   
    28    18    21 ar  
    29    18    24 1   
    30    19    38 1   
    31    20    21 ar  
    32    20    39 1   
    33    21    40 1   
    34    22    23 ar  
    35    22    26 ar  
    36    22    41 1   
    37    23    24 ar  
    38    23    42 1   
    39    24    25 ar  
    40    26    43 1   
    41    27    28 ar  
    42    27    32 ar  
    43    28    29 ar  
    44    28    50 1   
    45    29    30 ar  
    46    29    44 1   
    47    30    31 ar  
    48    31    32 ar  
    49    31    45 1   
    50    32    46 1   
    51    47    50 1   
    52    48    50 1   
    53    49    50 1   
@<TRIPOS>SUBSTRUCTURE
     1 LJE         1 TEMP              0 ****  ****    0 ROOT
