@<TRIPOS>MOLECULE
LJF
   59    63     1     0     0
SMALL
No Charge or Current Charge


@<TRIPOS>ATOM
      1 C10         -5.1000    -3.9910     0.8530 c2         1 LJF       0.486100
      2 N4          -3.9550    -3.3870     0.9960 ne         1 LJF      -0.621700
      3 C1          -3.6570    -2.2290     0.2640 ca         1 LJF       0.296000
      4 N1          -3.9710    -1.0370     0.8190 nb         1 LJF      -0.114000
      5 N2          -3.0720    -2.3900    -0.9440 nb         1 LJF      -0.190000
      6 C4          -2.7840    -1.2760    -1.6480 ca         1 LJF       0.088900
      7 C3          -3.0760     0.0000    -1.1440 ca         1 LJF       0.060000
      8 F1          -2.7520     1.1050    -1.8550 f          1 LJF      -0.155000
      9 C2          -3.6790     0.0890     0.1340 cp         1 LJF       0.176500
     10 C5          -3.9830     1.3950     0.7900 cp         1 LJF      -0.233500
     11 C6          -4.8150     2.3350     0.1430 ca         1 LJF      -0.016000
     12 C7          -5.1030     3.5430     0.7900 ca         1 LJF      -0.209000
     13 C8          -4.5590     3.7880     2.0580 ca         1 LJF       0.394900
     14 N3          -3.7490     2.9150     2.6910 nb         1 LJF      -0.738000
     15 C9          -3.4610     1.7550     2.0660 ca         1 LJF       0.624300
     16 O1          -2.5970     0.8980     2.7080 os         1 LJF      -0.350400
     17 C11         -1.4440     0.4290     2.1180 ca         1 LJF       0.083100
     18 C16         -0.9830    -0.8520     2.4580 ca         1 LJF      -0.078500
     19 C15          0.1620    -1.3780     1.8370 ca         1 LJF      -0.136000
     20 C12         -0.7370     1.1980     1.1720 ca         1 LJF      -0.078500
     21 C13          0.4080     0.6690     0.5500 ca         1 LJF      -0.136000
     22 C14          0.8570    -0.6310     0.8670 ca         1 LJF      -0.019000
     23 N5           2.0090    -1.2100     0.2760 ns         1 LJF      -0.141000
     24 C17          2.7060    -0.8930    -0.8830 c          1 LJF       0.625700
     25 O2           2.3010    -0.0800    -1.7070 o          1 LJF      -0.556100
     26 C18          3.9460    -1.7180    -1.1010 ca         1 LJF      -0.208600
     27 C23          3.9030    -3.1080    -0.8360 ca         1 LJF      -0.056000
     28 C22          5.0170    -3.9200    -1.0980 ca         1 LJF      -0.154000
     29 C21          6.1860    -3.3590    -1.6290 ca         1 LJF      -0.056000
     30 C20          6.2430    -1.9790    -1.8770 ca         1 LJF      -0.185000
     31 C19          5.1430    -1.1510    -1.6000 ca         1 LJF       0.366000
     32 N6           5.3190     0.2190    -1.8020 nu         1 LJF      -0.992000
     33 C24          4.9680     1.3430    -1.0510 ca         1 LJF       0.302000
     34 C25          4.9500     2.6050    -1.6680 ca         1 LJF      -0.150000
     35 C26          4.5980     3.7510    -0.9330 ca         1 LJF      -0.081000
     36 C27          4.2710     3.6380     0.4290 ca         1 LJF      -0.124000
     37 C28          4.3050     2.3810     1.0570 ca         1 LJF      -0.081000
     38 C29          4.6590     1.2380     0.3190 ca         1 LJF      -0.150000
     39 H10         -5.8500    -3.6090     0.1640 h4         1 LJF      -0.003700
     40 H10A        -5.3210    -4.8880     1.4240 h4         1 LJF      -0.003700
     41 H4          -2.3090    -1.4120    -2.6180 h4         1 LJF       0.042100
     42 H6          -5.2390     2.1220    -0.8370 ha         1 LJF       0.125000
     43 H7          -5.7470     4.2830     0.3240 ha         1 LJF       0.131000
     44 H8          -4.7750     4.7180     2.5830 h4         1 LJF       0.022100
     45 H16         -1.5250    -1.4440     3.1910 ha         1 LJF       0.128500
     46 H15          0.5030    -2.3760     2.1030 ha         1 LJF       0.128000
     47 H12         -1.0690     2.2000     0.9130 ha         1 LJF       0.128500
     48 H13          0.9410     1.2880    -0.1660 ha         1 LJF       0.128000
     49 HN5          2.4220    -1.9570     0.8190 hn         1 LJF       0.150000
     50 H23          2.9940    -3.5740    -0.4590 ha         1 LJF       0.118000
     51 H22          4.9690    -4.9890    -0.9030 ha         1 LJF       0.119000
     52 H21          7.0490    -3.9880    -1.8380 ha         1 LJF       0.115000
     53 H20          7.1620    -1.5470    -2.2640 ha         1 LJF       0.115000
     54 HN6          5.9060     0.4360    -2.6080 hn         1 LJF       0.493000
     55 H25          5.1960     2.6990    -2.7220 ha         1 LJF       0.115000
     56 H26          4.5770     4.7250    -1.4180 ha         1 LJF       0.111500
     57 H27          3.9970     4.5230     0.9990 ha         1 LJF       0.116000
     58 H28          4.0610     2.2930     2.1140 ha         1 LJF       0.111500
     59 H29          4.7020     0.2750     0.8170 ha         1 LJF       0.115000
@<TRIPOS>BOND
     1     1     2 2   
     2     1    39 1   
     3     1    40 1   
     4     2     3 1   
     5     3     4 ar  
     6     3     5 ar  
     7     4     9 ar  
     8     5     6 ar  
     9     6     7 ar  
    10     6    41 1   
    11     7     8 1   
    12     7     9 ar  
    13     9    10 1   
    14    10    11 ar  
    15    10    15 ar  
    16    11    12 ar  
    17    11    42 1   
    18    12    13 ar  
    19    12    43 1   
    20    13    14 ar  
    21    13    44 1   
    22    14    15 ar  
    23    15    16 1   
    24    16    17 1   
    25    17    18 ar  
    26    17    20 ar  
    27    18    19 ar  
    28    18    45 1   
    29    19    22 ar  
    30    19    46 1   
    31    20    21 ar  
    32    20    47 1   
    33    21    22 ar  
    34    21    48 1   
    35    22    23 1   
    36    23    24 1   
    37    23    49 1   
    38    24    25 2   
    39    24    26 1   
    40    26    27 ar  
    41    26    31 ar  
    42    27    28 ar  
    43    27    50 1   
    44    28    29 ar  
    45    28    51 1   
    46    29    30 ar  
    47    29    52 1   
    48    30    31 ar  
    49    30    53 1   
    50    31    32 1   
    51    32    33 1   
    52    32    54 1   
    53    33    34 ar  
    54    33    38 ar  
    55    34    35 ar  
    56    34    55 1   
    57    35    36 ar  
    58    35    56 1   
    59    36    37 ar  
    60    36    57 1   
    61    37    38 ar  
    62    37    58 1   
    63    38    59 1   
@<TRIPOS>SUBSTRUCTURE
     1 LJF         1 TEMP              0 ****  ****    0 ROOT
