@<TRIPOS>MOLECULE
LJF
   59    63     1     0     0
SMALL
bcc


@<TRIPOS>ATOM
      1 C10         -7.0090    -3.0280     2.1730 c2         1 LJF       0.486100
      2 N4          -5.9360    -2.5200     1.7380 ne         1 LJF      -0.621700
      3 C1          -6.0140    -1.4980     0.7900 ca         1 LJF       0.822000
      4 N1          -5.0660    -0.5780     0.8810 nb         1 LJF      -0.640000
      5 N2          -6.9750    -1.5340    -0.1260 nb         1 LJF      -0.716000
      6 C4          -6.9940    -0.5560    -1.0150 ca         1 LJF       0.417200
      7 C3          -6.0560     0.4550    -0.9730 ca         1 LJF      -0.105700
      8 F1          -6.0770     1.4290    -1.8830 f          1 LJF      -0.119900
      9 C2          -5.0810     0.4230     0.0110 cp         1 LJF       0.504800
     10 C5          -4.0550     1.4750     0.1240 cp         1 LJF      -0.298800
     11 C6          -4.3960     2.8060     0.3000 ca         1 LJF      -0.034000
     12 C7          -3.3990     3.7610     0.4510 ca         1 LJF      -0.292300
     13 C8          -2.0860     3.3330     0.4110 ca         1 LJF       0.460200
     14 N3          -1.7380     2.0630     0.2220 nb         1 LJF      -0.738000
     15 C9          -2.6870     1.1710     0.0800 ca         1 LJF       0.689600
     16 O1          -2.3570    -0.1120    -0.1480 os         1 LJF      -0.350400
     17 C11         -1.0230    -0.4560    -0.2090 ca         1 LJF       0.083100
     18 C16         -0.3770    -0.8940     0.9330 ca         1 LJF      -0.096500
     19 C15          0.9500    -1.2800     0.8570 ca         1 LJF      -0.154000
     20 C12         -0.3610    -0.4260    -1.4220 ca         1 LJF      -0.096500
     21 C13          0.9660    -0.8200    -1.5030 ca         1 LJF      -0.154000
     22 C14          1.6390    -1.2340    -0.3540 ca         1 LJF       0.073600
     23 N5           2.9840    -1.6210    -0.3460 ns         1 LJF      -0.467100
     24 C17          3.9770    -1.1320    -1.1350 c          1 LJF       0.692700
     25 O2           3.7940    -0.4310    -2.1110 o          1 LJF      -0.556100
     26 C18          5.3490    -1.5580    -0.7180 ca         1 LJF      -0.208600
     27 C23          5.6490    -2.9160    -0.6680 ca         1 LJF      -0.074000
     28 C22          6.9470    -3.3590    -0.4600 ca         1 LJF      -0.172000
     29 C21          7.9570    -2.4220    -0.2910 ca         1 LJF      -0.074000
     30 C20          7.6680    -1.0680    -0.2960 ca         1 LJF      -0.203000
     31 C19          6.3640    -0.6100    -0.5040 ca         1 LJF       0.227600
     32 N6           6.1170     0.7500    -0.5130 nu         1 LJF      -0.660000
     33 C24          5.0000     1.3750     0.0440 ca         1 LJF       0.163600
     34 C25          4.5750     2.5990    -0.4720 ca         1 LJF      -0.168000
     35 C26          3.4660     3.2370     0.0620 ca         1 LJF      -0.099000
     36 C27          2.7480     2.6560     1.1000 ca         1 LJF      -0.142000
     37 C28          3.1810     1.4480     1.6270 ca         1 LJF      -0.099000
     38 C29          4.3090     0.8190     1.1210 ca         1 LJF      -0.168000
     39 H10         -8.0050    -2.6940     1.8810 h4         1 LJF      -0.003700
     40 H10A        -6.9480    -3.8420     2.8870 h4         1 LJF      -0.003700
     41 H4          -7.7600    -0.5740    -1.7810 h4         1 LJF       0.042100
     42 H6          -5.4390     3.0960     0.3460 ha         1 LJF       0.143000
     43 H7          -3.6370     4.8040     0.6020 ha         1 LJF       0.149000
     44 H8          -1.2720     4.0380     0.5320 h4         1 LJF       0.022100
     45 H16         -0.8990    -0.9290     1.8810 ha         1 LJF       0.146500
     46 H15          1.4550    -1.6120     1.7550 ha         1 LJF       0.146000
     47 H12         -0.8780    -0.1030    -2.3170 ha         1 LJF       0.146500
     48 H13          1.4600    -0.8020    -2.4610 ha         1 LJF       0.146000
     49 HN5          3.2840    -2.1000     0.4900 hn         1 LJF       0.316500
     50 H23          4.8610    -3.6410    -0.8340 ha         1 LJF       0.136000
     51 H22          7.1640    -4.4180    -0.4410 ha         1 LJF       0.137000
     52 H21          8.9780    -2.7450    -0.1320 ha         1 LJF       0.133000
     53 H20          8.4590    -0.3470    -0.1260 ha         1 LJF       0.133000
     54 HN6          6.9130     1.3420    -0.6950 hn         1 LJF       0.437800
     55 H25          5.1130     3.0440    -1.3000 ha         1 LJF       0.133000
     56 H26          3.1500     4.1860    -0.3530 ha         1 LJF       0.129500
     57 H27          1.8690     3.1450     1.4980 ha         1 LJF       0.134000
     58 H28          2.6460     0.9930     2.4500 ha         1 LJF       0.129500
     59 H29          4.6550    -0.1010     1.5750 ha         1 LJF       0.133000
@<TRIPOS>BOND
     1     1     2 2   
     2     1    39 1   
     3     1    40 1   
     4     2     3 1   
     5     3     4 ar  
     6     3     5 ar  
     7     4     9 ar  
     8     5     6 ar  
     9     6     7 ar  
    10     6    41 1   
    11     7     8 1   
    12     7     9 ar  
    13     9    10 1   
    14    10    11 ar  
    15    10    15 ar  
    16    11    12 ar  
    17    11    42 1   
    18    12    13 ar  
    19    12    43 1   
    20    13    14 ar  
    21    13    44 1   
    22    14    15 ar  
    23    15    16 1   
    24    16    17 1   
    25    17    18 ar  
    26    17    20 ar  
    27    18    19 ar  
    28    18    45 1   
    29    19    22 ar  
    30    19    46 1   
    31    20    21 ar  
    32    20    47 1   
    33    21    22 ar  
    34    21    48 1   
    35    22    23 1   
    36    23    24 1   
    37    23    49 1   
    38    24    25 2   
    39    24    26 1   
    40    26    27 ar  
    41    26    31 ar  
    42    27    28 ar  
    43    27    50 1   
    44    28    29 ar  
    45    28    51 1   
    46    29    30 ar  
    47    29    52 1   
    48    30    31 ar  
    49    30    53 1   
    50    31    32 1   
    51    32    33 1   
    52    32    54 1   
    53    33    34 ar  
    54    33    38 ar  
    55    34    35 ar  
    56    34    55 1   
    57    35    36 ar  
    58    35    56 1   
    59    36    37 ar  
    60    36    57 1   
    61    37    38 ar  
    62    37    58 1   
    63    38    59 1   
@<TRIPOS>SUBSTRUCTURE
     1 LJF         1 TEMP              0 ****  ****    0 ROOT
