@<TRIPOS>MOLECULE
LJH
   76    79     1     0     0
SMALL
abcg2


@<TRIPOS>ATOM
      1 N1          -0.3520     0.5720    -0.5300 n7         1 LJH      -0.857400
      2 C5          -1.6790     0.5490     0.0490 c3         1 LJH       0.137800
      3 C6          -2.6730     1.1310    -0.9540 c3         1 LJH       0.201300
      4 C8           3.7630    -1.5900    -0.0860 c3         1 LJH       0.251600
      5 C10          2.6680    -3.3800    -1.4710 ca         1 LJH      -0.093250
      6 C13          1.2480    -4.3120     0.7180 ca         1 LJH      -0.112000
      7 C17          4.6590     2.7410    -0.0390 ca         1 LJH       0.034500
      8 C28         -4.6810     5.1140     0.0980 ca         1 LJH      -0.112000
      9 C2           0.6640     0.0830     0.3800 c3         1 LJH       0.137800
     10 C3           2.0270     0.1640    -0.2900 c3         1 LJH       0.201300
     11 N4           3.0850    -0.4470     0.5190 n3         1 LJH      -0.734500
     12 C27         -4.8540     3.7450    -0.0370 ca         1 LJH      -0.093250
     13 C31         -3.4980     3.3790     1.9060 ca         1 LJH      -0.093250
     14 C30         -3.3270     4.7520     2.0480 ca         1 LJH      -0.112000
     15 C29         -3.9170     5.6220     1.1430 ca         1 LJH      -0.111000
     16 C25         -4.4760     1.3810     0.7280 c3         1 LJH       0.251600
     17 N7          -4.0780     0.9350    -0.6040 n3         1 LJH      -0.734500
     18 C18          5.4760     3.4380    -0.9040 ca         1 LJH      -0.216250
     19 C16          5.0400     1.4840     0.4240 ca         1 LJH      -0.374500
     20 C14          2.0970    -3.2250     0.8530 ca         1 LJH      -0.093250
     21 C9           2.8180    -2.7520    -0.2410 ca         1 LJH      -0.092800
     22 C11          1.8230    -4.4750    -1.6090 ca         1 LJH      -0.112000
     23 S15          3.9760     0.5660     1.4750 sy         1 LJH       1.172600
     24 O24          3.0300     1.4930     2.0800 o          1 LJH      -0.541250
     25 O23          4.7960    -0.2780     2.3320 o          1 LJH      -0.541250
     26 C21          6.2560     0.9360     0.0160 ca         1 LJH       0.034500
     27 C20          7.0740     1.6310    -0.8480 ca         1 LJH      -0.216250
     28 C19          6.7000     2.8980    -1.3320 ca         1 LJH       0.370500
     29 N22          7.4850     3.5660    -2.2160 nv         1 LJH      -1.092000
     30 C12          1.1130    -4.9430    -0.5140 ca         1 LJH      -0.111000
     31 S32         -4.8570    -0.3670    -1.2710 sy         1 LJH       1.172600
     32 O41         -6.2410    -0.2950    -0.8270 o          1 LJH      -0.541250
     33 O40         -4.5690    -0.3400    -2.6970 o          1 LJH      -0.541250
     34 C33         -4.1290    -1.8150    -0.5970 ca         1 LJH      -0.374500
     35 C38         -4.5420    -2.2750     0.6510 ca         1 LJH       0.034500
     36 C37         -3.9170    -3.3580     1.2290 ca         1 LJH      -0.216250
     37 C36         -2.8580    -4.0130     0.5750 ca         1 LJH       0.370500
     38 N39         -2.2240    -5.0620     1.1630 nv         1 LJH      -1.092000
     39 C35         -2.4550    -3.5340    -0.6830 ca         1 LJH      -0.216250
     40 C34         -3.0840    -2.4520    -1.2610 ca         1 LJH       0.034500
     41 C26         -4.2650     2.8660     0.8680 ca         1 LJH      -0.092800
     42 HN1         -0.3520    -0.0110    -1.3600 hn         1 LJH       0.401000
     43 H5          -1.9920    -0.4580     0.3610 h1         1 LJH       0.047450
     44 H5A         -1.6640     1.1640     0.9530 h1         1 LJH       0.047450
     45 H6          -2.5010     2.2040    -1.0580 h1         1 LJH       0.063450
     46 H6A         -2.4980     0.7050    -1.9420 h1         1 LJH       0.063450
     47 H8           4.1880    -1.3220    -1.0600 h1         1 LJH       0.059200
     48 H8A          4.5920    -1.8930     0.5530 h1         1 LJH       0.059200
     49 H13          0.6860    -4.6650     1.5730 ha         1 LJH       0.115000
     50 H17          3.7290     3.1910     0.2830 ha         1 LJH       0.131500
     51 H28         -5.1440     5.7870    -0.6120 ha         1 LJH       0.115000
     52 H2           0.6610     0.7070     1.2750 h1         1 LJH       0.047450
     53 H2A          0.4830    -0.9520     0.7070 h1         1 LJH       0.047450
     54 H3           1.9980    -0.3750    -1.2400 h1         1 LJH       0.063450
     55 H3A          2.2590     1.2010    -0.5490 h1         1 LJH       0.063450
     56 H27         -5.4470     3.3550    -0.8560 ha         1 LJH       0.118250
     57 H31         -3.0260     2.7050     2.6120 ha         1 LJH       0.118250
     58 H30         -2.7290     5.1390     2.8630 ha         1 LJH       0.115000
     59 H29         -3.7820     6.6910     1.2490 ha         1 LJH       0.107000
     60 H25         -5.5320     1.1570     0.8720 h1         1 LJH       0.059200
     61 H25A        -3.9330     0.8490     1.5170 h1         1 LJH       0.059200
     62 H18          5.1730     4.4180    -1.2520 ha         1 LJH       0.117500
     63 H14          2.1990    -2.7360     1.8140 ha         1 LJH       0.118250
     64 H11          1.7180    -4.9570    -2.5720 ha         1 LJH       0.115000
     65 H21          6.5790    -0.0300     0.3810 ha         1 LJH       0.131500
     66 H20          8.0180     1.1980    -1.1530 ha         1 LJH       0.117500
     67 HN22         7.3210     4.5490    -2.3530 hn         1 LJH       0.472000
     68 HN2A         8.4470     3.2880    -2.3090 hn         1 LJH       0.472000
     69 H12          0.4590    -5.8000    -0.6200 ha         1 LJH       0.107000
     70 H38         -5.3580    -1.7980     1.1790 ha         1 LJH       0.131500
     71 H37         -4.2490    -3.7130     2.1960 ha         1 LJH       0.117500
     72 HN39        -2.6960    -5.5460     1.9080 hn         1 LJH       0.472000
     73 HN3A        -1.6610    -5.6600     0.5820 hn         1 LJH       0.472000
     74 H35         -1.6430    -4.0190    -1.2090 ha         1 LJH       0.117500
     75 H34         -2.7580    -2.1150    -2.2360 ha         1 LJH       0.131500
     76 H10          3.2170    -3.0120    -2.3310 ha         1 LJH       0.118250
@<TRIPOS>BOND
     1     1     2 1   
     2     1     9 1   
     3     1    42 1   
     4     2     3 1   
     5     2    43 1   
     6     2    44 1   
     7     3    17 1   
     8     3    45 1   
     9     3    46 1   
    10     4    11 1   
    11     4    21 1   
    12     4    47 1   
    13     4    48 1   
    14     5    21 ar  
    15     5    22 ar  
    16     5    76 1   
    17     6    20 ar  
    18     6    30 ar  
    19     6    49 1   
    20     7    18 ar  
    21     7    19 ar  
    22     7    50 1   
    23     8    12 ar  
    24     8    15 ar  
    25     8    51 1   
    26     9    10 1   
    27     9    52 1   
    28     9    53 1   
    29    10    11 1   
    30    10    54 1   
    31    10    55 1   
    32    11    23 1   
    33    12    41 ar  
    34    12    56 1   
    35    13    14 ar  
    36    13    41 ar  
    37    13    57 1   
    38    14    15 ar  
    39    14    58 1   
    40    15    59 1   
    41    16    17 1   
    42    16    41 1   
    43    16    60 1   
    44    16    61 1   
    45    17    31 1   
    46    18    28 ar  
    47    18    62 1   
    48    19    23 1   
    49    19    26 ar  
    50    20    21 ar  
    51    20    63 1   
    52    22    30 ar  
    53    22    64 1   
    54    23    24 2   
    55    23    25 2   
    56    26    27 ar  
    57    26    65 1   
    58    27    28 ar  
    59    27    66 1   
    60    28    29 1   
    61    29    67 1   
    62    29    68 1   
    63    30    69 1   
    64    31    32 2   
    65    31    33 2   
    66    31    34 1   
    67    34    35 ar  
    68    34    40 ar  
    69    35    36 ar  
    70    35    70 1   
    71    36    37 ar  
    72    36    71 1   
    73    37    38 1   
    74    37    39 ar  
    75    38    72 1   
    76    38    73 1   
    77    39    40 ar  
    78    39    74 1   
    79    40    75 1   
@<TRIPOS>SUBSTRUCTURE
     1 LJH         1 TEMP              0 ****  ****    0 ROOT
