@<TRIPOS>MOLECULE
LJH
   76    79     1     0     0
SMALL
No Charge or Current Charge


@<TRIPOS>ATOM
      1 N1          -0.9100     0.3510    -0.0990 n7         1 LJH      -0.857400
      2 C5          -2.0020     0.5590     0.8820 c3         1 LJH       0.137800
      3 C6          -3.4060     0.4020     0.2250 c3         1 LJH       0.201300
      4 C8           3.9050    -0.0830    -1.2730 c3         1 LJH       0.251600
      5 C10          3.1780    -1.5050    -3.2640 ca         1 LJH      -0.093250
      6 C13          3.2460    -3.8420    -1.7030 ca         1 LJH      -0.112000
      7 C17          6.0970     2.3280    -0.0690 ca         1 LJH       0.034500
      8 C28         -5.8550     4.0460    -1.4460 ca         1 LJH      -0.112000
      9 C2           0.4600     0.5500     0.4360 c3         1 LJH       0.137800
     10 C3           1.5420     0.3710    -0.6680 c3         1 LJH       0.201300
     11 N4           2.9630     0.3490    -0.2100 n3         1 LJH      -0.734500
     12 C27         -5.8270     3.0900    -0.4160 ca         1 LJH      -0.093250
     13 C31         -3.7090     3.9950     0.3690 ca         1 LJH      -0.093250
     14 C30         -3.7370     4.9510    -0.6620 ca         1 LJH      -0.112000
     15 C29         -4.8100     4.9770    -1.5690 ca         1 LJH      -0.111000
     16 C25         -4.7290     2.0140     1.6120 c3         1 LJH       0.251600
     17 N7          -4.5810     0.6290     1.1170 n3         1 LJH      -0.734500
     18 C18          7.4860     2.1620     0.0570 ca         1 LJH      -0.216250
     19 C16          5.2300     1.5850     0.7570 ca         1 LJH      -0.374500
     20 C14          3.5780    -2.6020    -1.1290 ca         1 LJH      -0.093250
     21 C9           3.5460    -1.4270    -1.9050 ca         1 LJH      -0.092800
     22 C11          2.8460    -2.7450    -3.8370 ca         1 LJH      -0.112000
     23 S15          3.4460     1.7710     0.6060 sy         1 LJH       1.172600
     24 O24          3.1510     2.9000    -0.2820 o          1 LJH      -0.541250
     25 O23          2.8940     1.6720     1.9620 o          1 LJH      -0.541250
     26 C21          5.7550     0.6830     1.7020 ca         1 LJH       0.034500
     27 C20          7.1470     0.5280     1.8160 ca         1 LJH      -0.216250
     28 C19          8.0070     1.2660     0.9960 ca         1 LJH       0.370500
     29 N22          9.3580     1.1120     1.1130 nv         1 LJH      -1.092000
     30 C12          2.8800    -3.9140    -3.0570 ca         1 LJH      -0.111000
     31 S32         -4.8620    -0.5380     2.3260 sy         1 LJH       1.172600
     32 O41         -3.8910    -0.3010     3.4000 o          1 LJH      -0.541250
     33 O40         -6.3090    -0.5230     2.5610 o          1 LJH      -0.541250
     34 C33         -4.4780    -2.0860     1.4940 ca         1 LJH      -0.374500
     35 C38         -3.3010    -2.7930     1.8090 ca         1 LJH       0.034500
     36 C37         -3.0140    -3.9950     1.1410 ca         1 LJH      -0.216250
     37 C36         -3.8920    -4.4890     0.1710 ca         1 LJH       0.370500
     38 N39         -3.6090    -5.6600    -0.4710 nv         1 LJH      -1.092000
     39 C35         -5.0620    -3.7880    -0.1410 ca         1 LJH      -0.216250
     40 C34         -5.3610    -2.5840     0.5180 ca         1 LJH       0.034500
     41 C26         -4.7550     3.0580     0.4980 ca         1 LJH      -0.092800
     42 HN1         -0.9790    -0.6090    -0.4620 hn         1 LJH       0.401000
     43 H5          -1.9040    -0.1590     1.7060 h1         1 LJH       0.047450
     44 H5A         -1.9290     1.5660     1.3140 h1         1 LJH       0.047450
     45 H6          -3.4500     1.1070    -0.6140 h1         1 LJH       0.063450
     46 H6A         -3.4600    -0.5910    -0.2380 h1         1 LJH       0.063450
     47 H8           3.9610     0.6820    -2.0600 h1         1 LJH       0.059200
     48 H8A          4.9200    -0.2050    -0.8770 h1         1 LJH       0.059200
     49 H13          3.2720    -4.7450    -1.0970 ha         1 LJH       0.115000
     50 H17          5.7060     3.0280    -0.8060 ha         1 LJH       0.131500
     51 H28         -6.6850     4.0640    -2.1490 ha         1 LJH       0.115000
     52 H2           0.5430     1.5590     0.8620 h1         1 LJH       0.047450
     53 H2A          0.6600    -0.1710     1.2410 h1         1 LJH       0.047450
     54 H3           1.3040    -0.5760    -1.1690 h1         1 LJH       0.063450
     55 H3A          1.4000     1.1600    -1.4190 h1         1 LJH       0.063450
     56 H27         -6.6360     2.3670    -0.3280 ha         1 LJH       0.118250
     57 H31         -2.8730     3.9820     1.0650 ha         1 LJH       0.118250
     58 H30         -2.9270     5.6710    -0.7570 ha         1 LJH       0.115000
     59 H29         -4.8310     5.7170    -2.3660 ha         1 LJH       0.107000
     60 H25         -5.6700     2.1130     2.1710 h1         1 LJH       0.059200
     61 H25A        -3.9220     2.2570     2.3160 h1         1 LJH       0.059200
     62 H18          8.1530     2.7340    -0.5820 ha         1 LJH       0.117500
     63 H14          3.8570    -2.5510    -0.0780 ha         1 LJH       0.118250
     64 H11          2.5620    -2.8000    -4.8860 ha         1 LJH       0.115000
     65 H21          5.0930     0.1000     2.3400 ha         1 LJH       0.131500
     66 H20          7.5500    -0.1700     2.5440 ha         1 LJH       0.117500
     67 HN22         9.9740     1.7810     0.6560 hn         1 LJH       0.472000
     68 HN2A         9.7340     0.6100     1.9150 hn         1 LJH       0.472000
     69 H12          2.6230    -4.8730    -3.5020 ha         1 LJH       0.107000
     70 H38         -2.6080    -2.4210     2.5620 ha         1 LJH       0.131500
     71 H37         -2.1050    -4.5390     1.3830 ha         1 LJH       0.117500
     72 HN39        -2.8670    -6.2550    -0.1100 hn         1 LJH       0.472000
     73 HN3A        -4.3310    -6.1090    -1.0290 hn         1 LJH       0.472000
     74 H35         -5.7430    -4.1690    -0.8960 ha         1 LJH       0.117500
     75 H34         -6.2710    -2.0420     0.2640 ha         1 LJH       0.131500
     76 H10          3.1460    -0.6060    -3.8760 ha         1 LJH       0.118250
@<TRIPOS>BOND
     1     1     2 1   
     2     1     9 1   
     3     1    42 1   
     4     2     3 1   
     5     2    43 1   
     6     2    44 1   
     7     3    17 1   
     8     3    45 1   
     9     3    46 1   
    10     4    11 1   
    11     4    21 1   
    12     4    47 1   
    13     4    48 1   
    14     5    21 ar  
    15     5    22 ar  
    16     5    76 1   
    17     6    20 ar  
    18     6    30 ar  
    19     6    49 1   
    20     7    18 ar  
    21     7    19 ar  
    22     7    50 1   
    23     8    12 ar  
    24     8    15 ar  
    25     8    51 1   
    26     9    10 1   
    27     9    52 1   
    28     9    53 1   
    29    10    11 1   
    30    10    54 1   
    31    10    55 1   
    32    11    23 1   
    33    12    41 ar  
    34    12    56 1   
    35    13    14 ar  
    36    13    41 ar  
    37    13    57 1   
    38    14    15 ar  
    39    14    58 1   
    40    15    59 1   
    41    16    17 1   
    42    16    41 1   
    43    16    60 1   
    44    16    61 1   
    45    17    31 1   
    46    18    28 ar  
    47    18    62 1   
    48    19    23 1   
    49    19    26 ar  
    50    20    21 ar  
    51    20    63 1   
    52    22    30 ar  
    53    22    64 1   
    54    23    24 2   
    55    23    25 2   
    56    26    27 ar  
    57    26    65 1   
    58    27    28 ar  
    59    27    66 1   
    60    28    29 1   
    61    29    67 1   
    62    29    68 1   
    63    30    69 1   
    64    31    32 2   
    65    31    33 2   
    66    31    34 1   
    67    34    35 ar  
    68    34    40 ar  
    69    35    36 ar  
    70    35    70 1   
    71    36    37 ar  
    72    36    71 1   
    73    37    38 1   
    74    37    39 ar  
    75    38    72 1   
    76    38    73 1   
    77    39    40 ar  
    78    39    74 1   
    79    40    75 1   
@<TRIPOS>SUBSTRUCTURE
     1 LJH         1 TEMP              0 ****  ****    0 ROOT
