@<TRIPOS>MOLECULE
LJJ
   31    32     1     0     0
SMALL
abcg2


@<TRIPOS>ATOM
      1 N1           2.9600    -1.1270    -0.6490 nc         1 LJJ      -0.342000
      2 N3           0.3530     0.9950     0.1410 nu         1 LJJ      -0.914100
      3 C4          -0.9590     0.4040    -0.1010 c3         1 LJJ       0.242500
      4 C5          -1.3510    -0.5820     1.0080 c3         1 LJJ      -0.087900
      5 C6          -2.2980    -1.7060     0.5880 c3         1 LJJ      -0.066400
      6 C7          -3.4690    -1.3140    -0.3180 c3         1 LJJ      -0.072900
      7 C8          -4.0750     0.0660    -0.0610 c3         1 LJJ      -0.072900
      8 C10         -1.9540     1.5580    -0.2310 c3         1 LJJ      -0.087900
      9 C2           3.5420    -0.1400    -0.0850 cd         1 LJJ       0.404300
     10 C3           1.4660     0.2770    -0.0600 cd         1 LJJ       0.667900
     11 C9          -3.3290     1.1910    -0.7760 c3         1 LJJ      -0.066400
     12 N2           1.6010    -0.8760    -0.6350 nc         1 LJJ      -0.440000
     13 O1           2.6440     0.7970     0.3190 os         1 LJJ      -0.322000
     14 H1           0.4060     1.7270     0.8350 hn         1 LJJ       0.491000
     15 H2          -0.8870    -0.1250    -1.0570 h1         1 LJJ       0.088700
     16 H3          -0.4490    -1.0470     1.4100 hc         1 LJJ       0.043200
     17 H4          -1.7880    -0.0130     1.8350 hc         1 LJJ       0.043200
     18 H5          -1.7190    -2.4850     0.0850 hc         1 LJJ       0.042700
     19 H6          -2.6870    -2.1640     1.5000 hc         1 LJJ       0.042700
     20 H7          -3.1570    -1.3570    -1.3660 hc         1 LJJ       0.039700
     21 H8          -4.2430    -2.0790    -0.2160 hc         1 LJJ       0.039700
     22 H9          -5.1050     0.0670    -0.4250 hc         1 LJJ       0.039700
     23 H10         -4.1400     0.2690     1.0130 hc         1 LJJ       0.039700
     24 H11         -2.0670     2.0220     0.7560 hc         1 LJJ       0.043200
     25 H12         -1.5220     2.3200    -0.8840 hc         1 LJJ       0.043200
     26 H13          5.3260     0.9900    -0.3470 hc         1 LJJ       0.065367
     27 H14          5.1790     0.2130     1.2280 hc         1 LJJ       0.065367
     28 H15          5.5490    -0.7570    -0.2030 hc         1 LJJ       0.065367
     29 H16         -3.2350     0.9200    -1.8330 hc         1 LJJ       0.042700
     30 H17         -3.9410     2.0970    -0.7540 hc         1 LJJ       0.042700
     31 C1           4.9780     0.0920     0.1640 c3         1 LJJ      -0.114400
@<TRIPOS>BOND
     1     1     9 2   
     2     1    12 1   
     3     2     3 1   
     4     2    10 1   
     5     2    14 1   
     6     3     4 1   
     7     3     8 1   
     8     3    15 1   
     9     4     5 1   
    10     4    16 1   
    11     4    17 1   
    12     5     6 1   
    13     5    18 1   
    14     5    19 1   
    15     6     7 1   
    16     6    20 1   
    17     6    21 1   
    18     7    11 1   
    19     7    22 1   
    20     7    23 1   
    21     8    11 1   
    22     8    24 1   
    23     8    25 1   
    24     9    13 1   
    25     9    31 1   
    26    10    12 2   
    27    10    13 1   
    28    11    29 1   
    29    11    30 1   
    30    26    31 1   
    31    27    31 1   
    32    28    31 1   
@<TRIPOS>SUBSTRUCTURE
     1 LJJ         1 TEMP              0 ****  ****    0 ROOT
