@<TRIPOS>MOLECULE
LJJ
   31    32     1     0     0
SMALL
No Charge or Current Charge


@<TRIPOS>ATOM
      1 N1           3.0900    -0.9260    -0.9300 nc         1 LJJ      -0.342000
      2 N3           0.3790     0.7640     0.3910 nu         1 LJJ      -0.914100
      3 C4          -0.9520     0.2760     0.0110 c3         1 LJJ       0.242500
      4 C5          -1.4460    -0.7200     1.0900 c3         1 LJJ      -0.087900
      5 C6          -2.4910    -1.7650     0.6300 c3         1 LJJ      -0.066400
      6 C7          -3.5770    -1.2930    -0.3650 c3         1 LJJ      -0.072900
      7 C8          -4.1240     0.1340    -0.1440 c3         1 LJJ      -0.072900
      8 C10         -1.8870     1.5030    -0.1480 c3         1 LJJ      -0.087900
      9 C2           3.6070     0.0170    -0.1530 cd         1 LJJ       0.404300
     10 C3           1.5740     0.2580    -0.0000 cd         1 LJJ       0.667900
     11 C9          -3.2600     1.2330    -0.8050 c3         1 LJJ      -0.066400
     12 N2           1.7250    -0.7620    -0.8240 nc         1 LJJ      -0.440000
     13 O1           2.7040     0.8080     0.4710 os         1 LJJ      -0.322000
     14 H1           0.4520     1.5360     1.0470 hn         1 LJJ       0.491000
     15 H2          -0.8920    -0.2460    -0.9560 h1         1 LJJ       0.088700
     16 H3          -0.5900    -1.2810     1.4870 hc         1 LJJ       0.043200
     17 H4          -1.8490    -0.1570     1.9410 hc         1 LJJ       0.043200
     18 H5          -1.9640    -2.6130     0.1750 hc         1 LJJ       0.042700
     19 H6          -2.9850    -2.1650     1.5250 hc         1 LJJ       0.042700
     20 H7          -3.1890    -1.3760    -1.3880 hc         1 LJJ       0.039700
     21 H8          -4.4140    -2.0010    -0.3080 hc         1 LJJ       0.039700
     22 H9          -5.1260     0.1860    -0.5880 hc         1 LJJ       0.039700
     23 H10         -4.2500     0.3360     0.9270 hc         1 LJJ       0.039700
     24 H11         -2.0490     1.9650     0.8340 hc         1 LJJ       0.043200
     25 H12         -1.3760     2.2570    -0.7590 hc         1 LJJ       0.043200
     26 H13          5.5740     0.4630    -0.8950 hc         1 LJJ       0.065367
     27 H14          5.2580     1.0700     0.7410 hc         1 LJJ       0.065367
     28 H15          5.5470    -0.6590     0.4790 hc         1 LJJ       0.065367
     29 H16         -3.1070     0.9840    -1.8620 hc         1 LJJ       0.042700
     30 H17         -3.8290     2.1710    -0.7960 hc         1 LJJ       0.042700
     31 C1           5.0770     0.2350     0.0550 c3         1 LJJ      -0.114400
@<TRIPOS>BOND
     1     1     9 2   
     2     1    12 1   
     3     2     3 1   
     4     2    10 1   
     5     2    14 1   
     6     3     4 1   
     7     3     8 1   
     8     3    15 1   
     9     4     5 1   
    10     4    16 1   
    11     4    17 1   
    12     5     6 1   
    13     5    18 1   
    14     5    19 1   
    15     6     7 1   
    16     6    20 1   
    17     6    21 1   
    18     7    11 1   
    19     7    22 1   
    20     7    23 1   
    21     8    11 1   
    22     8    24 1   
    23     8    25 1   
    24     9    13 1   
    25     9    31 1   
    26    10    12 2   
    27    10    13 1   
    28    11    29 1   
    29    11    30 1   
    30    26    31 1   
    31    27    31 1   
    32    28    31 1   
@<TRIPOS>SUBSTRUCTURE
     1 LJJ         1 TEMP              0 ****  ****    0 ROOT
