@<TRIPOS>MOLECULE
LJK
   31    31     1     0     0
SMALL
No Charge or Current Charge


@<TRIPOS>ATOM
      1 N1          65.5810    -2.6890    77.9910 ns         1 LJK      -0.510900
      2 N3          63.2430    -1.0720    78.9250 na         1 LJK      -0.013200
      3 C4          67.0110    -3.3760    76.0930 c3         1 LJK      -0.103100
      4 C5          67.8280    -3.6410    78.4810 c3         1 LJK      -0.103100
      5 C6          65.7470    -1.3220    78.1210 c          1 LJK       0.636700
      6 C7          64.5260    -0.6190    78.5900 cc         1 LJK      -0.211600
      7 C8          64.4400     0.7320    78.7960 cd         1 LJK      -0.159000
      8 C1          65.3960    -5.5530    78.9750 c3         1 LJK      -0.090100
      9 C2          65.9180    -5.0830    77.5940 c3         1 LJK      -0.093400
     10 C3          66.5830    -3.6730    77.5540 c3         1 LJK       0.139400
     11 O1          66.7950    -0.7430    77.8750 o          1 LJK      -0.590100
     12 C9          63.1350     1.0210    79.2360 cd         1 LJK       0.247300
     13 N2          62.3830    -0.0590    79.3240 nc         1 LJK      -0.508800
     14 H1          64.6660    -3.0460    78.2200 hn         1 LJK       0.306500
     15 H2          62.9170    -2.0370    78.8970 hn         1 LJK       0.370000
     16 H3          67.5280    -2.4140    76.0090 hc         1 LJK       0.048533
     17 H4          67.6940    -4.1500    75.7230 hc         1 LJK       0.048533
     18 H5          66.1380    -3.3490    75.4290 hc         1 LJK       0.048533
     19 H6          67.5380    -3.7010    79.5370 hc         1 LJK       0.048533
     20 H7          68.4970    -4.4820    78.2620 hc         1 LJK       0.048533
     21 H8          68.4070    -2.7200    78.3470 hc         1 LJK       0.048533
     22 H9          65.2340     1.4570    78.6480 ha         1 LJK       0.158000
     23 H10         61.7280     2.6260    78.9480 hc         1 LJK       0.049367
     24 H11         62.2490     2.4040    80.6290 hc         1 LJK       0.049367
     25 H12         63.3410     3.1550    79.4540 hc         1 LJK       0.049367
     26 H13         64.9080    -6.5300    78.8780 hc         1 LJK       0.036367
     27 H14         66.2170    -5.6630    79.6930 hc         1 LJK       0.036367
     28 H15         64.6630    -4.8520    79.3890 hc         1 LJK       0.036367
     29 H16         65.0760    -5.0990    76.8890 hc         1 LJK       0.047200
     30 H17         66.6330    -5.8290    77.2260 hc         1 LJK       0.047200
     31 C10         62.5830     2.3740    79.5860 c3         1 LJK      -0.120400
@<TRIPOS>BOND
     1     1     5 1   
     2     1    10 1   
     3     1    14 1   
     4     2     6 1   
     5     2    13 1   
     6     2    15 1   
     7     3    10 1   
     8     3    16 1   
     9     3    17 1   
    10     3    18 1   
    11     4    10 1   
    12     4    19 1   
    13     4    20 1   
    14     4    21 1   
    15     5     6 1   
    16     5    11 2   
    17     6     7 2   
    18     7    12 1   
    19     7    22 1   
    20     8     9 1   
    21     8    26 1   
    22     8    27 1   
    23     8    28 1   
    24     9    10 1   
    25     9    29 1   
    26     9    30 1   
    27    12    13 2   
    28    12    31 1   
    29    23    31 1   
    30    24    31 1   
    31    25    31 1   
@<TRIPOS>SUBSTRUCTURE
     1 LJK         1 TEMP              0 ****  ****    0 ROOT
