@<TRIPOS>MOLECULE
LJK
   31    31     1     0     0
SMALL
abcg2


@<TRIPOS>ATOM
      1 N1          65.5690    -2.6670    77.9830 ns         1 LJK      -0.510900
      2 N3          63.2710    -0.9080    78.2630 na         1 LJK      -0.013200
      3 C4          66.9510    -3.4690    76.1130 c3         1 LJK      -0.103100
      4 C5          67.8050    -3.6100    78.4770 c3         1 LJK      -0.103100
      5 C6          65.7520    -1.3340    78.0150 c          1 LJK       0.636700
      6 C7          64.5670    -0.5290    78.4090 cc         1 LJK      -0.211600
      7 C8          64.5350     0.7240    78.9900 cd         1 LJK      -0.159000
      8 C1          65.4690    -5.4820    79.1210 c3         1 LJK      -0.090100
      9 C2          65.8730    -5.0570    77.7100 c3         1 LJK      -0.093400
     10 C3          66.5640    -3.6860    77.5800 c3         1 LJK       0.139400
     11 O1          66.8150    -0.7670    77.7520 o          1 LJK      -0.590100
     12 C9          63.1670     1.0240    79.1620 cd         1 LJK       0.247300
     13 N2          62.4090     0.0260    78.7010 nc         1 LJK      -0.508800
     14 H1          64.6830    -3.0180    78.3110 hn         1 LJK       0.306500
     15 H2          62.9120    -1.7240    77.7910 hn         1 LJK       0.370000
     16 H3          67.3940    -2.4850    75.9700 hc         1 LJK       0.048533
     17 H4          67.6790    -4.2240    75.8110 hc         1 LJK       0.048533
     18 H5          66.0730    -3.5580    75.4710 hc         1 LJK       0.048533
     19 H6          67.5320    -3.6660    79.5310 hc         1 LJK       0.048533
     20 H7          68.4700    -4.4450    78.2470 hc         1 LJK       0.048533
     21 H8          68.3420    -2.6790    78.3110 hc         1 LJK       0.048533
     22 H9          65.3850     1.3240    79.2660 ha         1 LJK       0.158000
     23 H10         61.4700     2.1990    79.6960 hc         1 LJK       0.049367
     24 H11         62.8320     2.3430    80.8170 hc         1 LJK       0.049367
     25 H12         62.8980     3.1470    79.2520 hc         1 LJK       0.049367
     26 H13         64.9430    -6.4380    79.0840 hc         1 LJK       0.036367
     27 H14         66.3370    -5.6060    79.7690 hc         1 LJK       0.036367
     28 H15         64.7990    -4.7620    79.5970 hc         1 LJK       0.036367
     29 H16         64.9910    -5.0510    77.0620 hc         1 LJK       0.047200
     30 H17         66.5580    -5.7980    77.2930 hc         1 LJK       0.047200
     31 C10         62.5560     2.2450    79.7640 c3         1 LJK      -0.120400
@<TRIPOS>BOND
     1     1     5 1   
     2     1    10 1   
     3     1    14 1   
     4     2     6 1   
     5     2    13 1   
     6     2    15 1   
     7     3    10 1   
     8     3    16 1   
     9     3    17 1   
    10     3    18 1   
    11     4    10 1   
    12     4    19 1   
    13     4    20 1   
    14     4    21 1   
    15     5     6 1   
    16     5    11 2   
    17     6     7 2   
    18     7    12 1   
    19     7    22 1   
    20     8     9 1   
    21     8    26 1   
    22     8    27 1   
    23     8    28 1   
    24     9    10 1   
    25     9    29 1   
    26     9    30 1   
    27    12    13 2   
    28    12    31 1   
    29    23    31 1   
    30    24    31 1   
    31    25    31 1   
@<TRIPOS>SUBSTRUCTURE
     1 LJK         1 TEMP              0 ****  ****    0 ROOT
