@<TRIPOS>MOLECULE
LJL
   43    44     1     0     0
SMALL
abcg2


@<TRIPOS>ATOM
      1 C7          20.1510    14.2300    27.9390 ca         1 LJL      -0.089300
      2 C8          21.1090    14.4220    28.9240 ca         1 LJL      -0.091000
      3 C9          20.8150    14.1530    30.2580 ca         1 LJL      -0.180000
      4 O1          21.7500    12.4720    26.3120 oh         1 LJL      -0.660000
      5 C1          21.1630    13.3280    22.2740 ca         1 LJL       0.104100
      6 C5          20.4170    14.5040    26.4760 c3         1 LJL      -0.044400
      7 C6          20.3510    15.9910    26.1480 c3         1 LJL       0.170600
      8 C4          21.7270    13.8470    25.9910 c3         1 LJL       0.231600
      9 C3          21.8800    13.9710    24.4980 ca         1 LJL      -0.081300
     10 C2          21.0660    13.2140    23.6500 ca         1 LJL      -0.145000
     11 C16         22.1000    14.2200    21.7180 ca         1 LJL       0.113100
     12 O           20.4210    12.6370    21.3870 os         1 LJL      -0.323100
     13 C           19.4620    11.7270    21.8820 c3         1 LJL       0.145900
     14 C15         22.9040    14.9680    22.5590 ca         1 LJL      -0.184000
     15 C14         22.7980    14.8430    23.9420 ca         1 LJL      -0.093000
     16 O2          21.4130    16.6700    26.7750 oh         1 LJL      -0.663000
     17 C13         18.8880    13.7710    28.3250 ca         1 LJL      -0.165000
     18 C11         18.5800    13.5110    29.6510 ca         1 LJL       0.110100
     19 C12         16.3480    12.8910    29.1560 c3         1 LJL       0.145900
     20 C10         19.5640    13.7000    30.6370 ca         1 LJL       0.112100
     21 H1          22.0990    14.7790    28.6740 ha         1 LJL       0.127000
     22 H2          21.5790    14.3020    31.0140 ha         1 LJL       0.116000
     23 H3          21.5830    12.3820    27.2570 ho         1 LJL       0.451000
     24 H4          22.8290    14.9230    20.1030 ho         1 LJL       0.458000
     25 H5          19.6000    14.0460    25.9050 hc         1 LJL       0.060700
     26 H6          19.3760    16.3720    26.4780 h1         1 LJL       0.025700
     27 H7          20.3860    16.1120    25.0580 h1         1 LJL       0.025700
     28 H8          22.5760    14.3620    26.4600 h1         1 LJL       0.052700
     29 H9          19.9720    13.5680    32.4950 ho         1 LJL       0.460000
     30 H10         20.3510    12.5280    24.0860 ha         1 LJL       0.127000
     31 H11         18.9770    11.2860    21.0150 h1         1 LJL       0.039033
     32 H12         19.9210    10.9300    22.4730 h1         1 LJL       0.039033
     33 H13         18.7030    12.2230    22.4940 h1         1 LJL       0.039033
     34 H14         23.6290    15.6540    22.1340 ha         1 LJL       0.114000
     35 H15         23.4410    15.4350    24.5810 ha         1 LJL       0.119000
     36 H16         21.3510    17.6020    26.5470 ho         1 LJL       0.444000
     37 H17         18.1420    13.6140    27.5560 ha         1 LJL       0.116000
     38 H18         15.4790    12.5530    29.7160 h1         1 LJL       0.039367
     39 H19         16.0950    13.8230    28.6430 h1         1 LJL       0.039367
     40 H20         16.5960    12.1340    28.4060 h1         1 LJL       0.039367
     41 O4          17.3870    13.0700    30.0950 os         1 LJL      -0.321100
     42 O3          19.2200    13.4180    31.9100 oh         1 LJL      -0.514100
     43 O5          22.1560    14.2870    20.3720 oh         1 LJL      -0.514100
@<TRIPOS>BOND
     1     1     2 ar  
     2     1     6 1   
     3     1    17 ar  
     4     2     3 ar  
     5     2    21 1   
     6     3    20 ar  
     7     3    22 1   
     8     4     8 1   
     9     4    23 1   
    10     5    10 ar  
    11     5    11 ar  
    12     5    12 1   
    13     6     7 1   
    14     6     8 1   
    15     6    25 1   
    16     7    16 1   
    17     7    26 1   
    18     7    27 1   
    19     8     9 1   
    20     8    28 1   
    21     9    10 ar  
    22     9    15 ar  
    23    10    30 1   
    24    11    14 ar  
    25    11    43 1   
    26    12    13 1   
    27    13    31 1   
    28    13    32 1   
    29    13    33 1   
    30    14    15 ar  
    31    14    34 1   
    32    15    35 1   
    33    16    36 1   
    34    17    18 ar  
    35    17    37 1   
    36    18    20 ar  
    37    18    41 1   
    38    19    38 1   
    39    19    39 1   
    40    19    40 1   
    41    19    41 1   
    42    20    42 1   
    43    24    43 1   
    44    29    42 1   
@<TRIPOS>SUBSTRUCTURE
     1 LJL         1 TEMP              0 ****  ****    0 ROOT
