@<TRIPOS>MOLECULE
LJL
   43    44     1     0     0
SMALL
No Charge or Current Charge


@<TRIPOS>ATOM
      1 C7          20.1030    14.2350    27.9740 ca         1 LJL      -0.089300
      2 C8          21.0860    14.5310    28.9410 ca         1 LJL      -0.091000
      3 C9          20.8350    14.3120    30.3050 ca         1 LJL      -0.180000
      4 O1          21.6980    12.4200    26.3640 oh         1 LJL      -0.660000
      5 C1          21.2150    13.3710    22.1730 ca         1 LJL       0.104100
      6 C5          20.3640    14.4610    26.4750 c3         1 LJL      -0.044400
      7 C6          20.2610    15.9620    26.0910 c3         1 LJL       0.170600
      8 C4          21.6870    13.8020    25.9840 c3         1 LJL       0.231600
      9 C3          21.8890    13.9200    24.4690 ca         1 LJL      -0.081300
     10 C2          21.0310    13.2500    23.5700 ca         1 LJL      -0.145000
     11 C16         22.2710    14.1750    21.6800 ca         1 LJL       0.113100
     12 O           20.3880    12.7250    21.2670 os         1 LJL      -0.323100
     13 C           19.2910    11.8910    21.6810 c3         1 LJL       0.145900
     14 C15         23.1250    14.8420    22.5750 ca         1 LJL      -0.184000
     15 C14         22.9350    14.7150    23.9610 ca         1 LJL      -0.093000
     16 O2          21.3440    16.7260    26.6420 oh         1 LJL      -0.663000
     17 C13         18.8590    13.7200    28.3970 ca         1 LJL      -0.165000
     18 C11         18.5960    13.4980    29.7690 ca         1 LJL       0.110100
     19 C12         16.3100    12.6620    29.3100 c3         1 LJL       0.145900
     20 C10         19.5980    13.7970    30.7240 ca         1 LJL       0.112100
     21 H1          22.0480    14.9400    28.6390 ha         1 LJL       0.127000
     22 H2          21.6090    14.5480    31.0330 ha         1 LJL       0.116000
     23 H3          21.4000    12.3960    27.2990 ho         1 LJL       0.451000
     24 H4          23.2510    14.9050    20.1970 ho         1 LJL       0.458000
     25 H5          19.5570    13.9680    25.9200 hc         1 LJL       0.060700
     26 H6          19.3000    16.3540    26.4530 h1         1 LJL       0.025700
     27 H7          20.2570    16.0550    24.9970 h1         1 LJL       0.025700
     28 H8          22.5250    14.3130    26.4780 h1         1 LJL       0.052700
     29 H9          20.1840    13.8610    32.5530 ho         1 LJL       0.460000
     30 H10         20.2320    12.6360    23.9750 ha         1 LJL       0.127000
     31 H11         18.7730    11.4830    20.8040 h1         1 LJL       0.039033
     32 H12         19.6480    11.0490    22.2870 h1         1 LJL       0.039033
     33 H13         18.5630    12.4660    22.2680 h1         1 LJL       0.039033
     34 H14         23.9380    15.4610    22.2030 ha         1 LJL       0.114000
     35 H15         23.6010    15.2410    24.6420 ha         1 LJL       0.119000
     36 H16         21.1830    17.6650    26.4000 ho         1 LJL       0.444000
     37 H17         18.1050    13.4980    27.6470 ha         1 LJL       0.116000
     38 H18         15.4480    12.2810    29.8720 h1         1 LJL       0.039367
     39 H19         15.9850    13.5470    28.7480 h1         1 LJL       0.039367
     40 H20         16.6220    11.8860    28.5990 h1         1 LJL       0.039367
     41 O4          17.3830    12.9930    30.2100 os         1 LJL      -0.321100
     42 O3          19.3790    13.5940    32.0610 oh         1 LJL      -0.514100
     43 O5          22.4790    14.3170    20.3330 oh         1 LJL      -0.514100
@<TRIPOS>BOND
     1     1     2 ar  
     2     1     6 1   
     3     1    17 ar  
     4     2     3 ar  
     5     2    21 1   
     6     3    20 ar  
     7     3    22 1   
     8     4     8 1   
     9     4    23 1   
    10     5    10 ar  
    11     5    11 ar  
    12     5    12 1   
    13     6     7 1   
    14     6     8 1   
    15     6    25 1   
    16     7    16 1   
    17     7    26 1   
    18     7    27 1   
    19     8     9 1   
    20     8    28 1   
    21     9    10 ar  
    22     9    15 ar  
    23    10    30 1   
    24    11    14 ar  
    25    11    43 1   
    26    12    13 1   
    27    13    31 1   
    28    13    32 1   
    29    13    33 1   
    30    14    15 ar  
    31    14    34 1   
    32    15    35 1   
    33    16    36 1   
    34    17    18 ar  
    35    17    37 1   
    36    18    20 ar  
    37    18    41 1   
    38    19    38 1   
    39    19    39 1   
    40    19    40 1   
    41    19    41 1   
    42    20    42 1   
    43    24    43 1   
    44    29    42 1   
@<TRIPOS>SUBSTRUCTURE
     1 LJL         1 TEMP              0 ****  ****    0 ROOT
