@<TRIPOS>MOLECULE
LJM
   31    32     1     0     0
SMALL
No Charge or Current Charge


@<TRIPOS>ATOM
      1 N1           2.0440     0.2480    -1.2410 nc         1 LJM      -0.632000
      2 C4           3.2770     0.8490    -1.2430 cc         1 LJM       0.264900
      3 C5           1.8720    -0.4550    -0.1110 cd         1 LJM       0.332900
      4 C6           0.6190    -1.2310     0.2080 c          1 LJM       0.532600
      5 C7          -1.6670    -1.7750    -0.7230 c3         1 LJM       0.152300
      6 C8          -2.7120    -0.8040    -0.1930 ca         1 LJM      -0.136300
      7 C10         -4.4090     0.9040    -0.5910 ca         1 LJM      -0.155500
      8 C13         -2.9460    -0.7030     1.1930 ca         1 LJM      -0.067500
      9 C1           5.4450     2.3040     1.1490 c3         1 LJM      -0.090100
     10 C11         -4.6370     0.9960     0.7900 ca         1 LJM       0.177000
     11 C12         -3.9090     0.1960     1.6830 ca         1 LJM      -0.155500
     12 C3           4.0550     0.6230    -0.1350 cd         1 LJM      -0.237300
     13 C9          -3.4470     0.0050    -1.0840 ca         1 LJM      -0.067500
     14 F1          -5.5620     1.8600     1.2620 f          1 LJM      -0.179000
     15 N2          -0.3460    -1.1500    -0.7810 ns         1 LJM      -0.477900
     16 O1           0.4400    -1.8820     1.2340 o          1 LJM      -0.608100
     17 S1           3.2290    -0.4170     1.0130 ss         1 LJM       0.092600
     18 H1           3.5510     1.4510    -2.1000 h4         1 LJM       0.043100
     19 H2          -1.6280    -2.6690    -0.0870 h1         1 LJM       0.064700
     20 H3          -1.9440    -2.1030    -1.7340 h1         1 LJM       0.064700
     21 H4          -4.9770     1.5280    -1.2770 ha         1 LJM       0.133000
     22 H5          -2.3800    -1.3200     1.8890 ha         1 LJM       0.124000
     23 H6           4.8420     3.1400     0.7750 hc         1 LJM       0.040033
     24 H7           5.0320     1.9830     2.1120 hc         1 LJM       0.040033
     25 H8           6.4670     2.6650     1.3160 hc         1 LJM       0.040033
     26 H9          -4.0900     0.2750     2.7520 ha         1 LJM       0.133000
     27 H10          5.9100     1.4810    -0.7940 hc         1 LJM       0.055200
     28 H11          6.0770     0.3330     0.5250 hc         1 LJM       0.055200
     29 H12         -3.2720    -0.0620    -2.1570 ha         1 LJM       0.124000
     30 H13         -0.1050    -0.5830    -1.5880 hn         1 LJM       0.341500
     31 C2           5.4430     1.1420     0.1390 c3         1 LJM      -0.005100
@<TRIPOS>BOND
     1     1     2 1   
     2     1     3 2   
     3     2    12 2   
     4     2    18 1   
     5     3     4 1   
     6     3    17 1   
     7     4    15 1   
     8     4    16 2   
     9     5     6 1   
    10     5    15 1   
    11     5    19 1   
    12     5    20 1   
    13     6     8 ar  
    14     6    13 ar  
    15     7    10 ar  
    16     7    13 ar  
    17     7    21 1   
    18     8    11 ar  
    19     8    22 1   
    20     9    23 1   
    21     9    24 1   
    22     9    25 1   
    23     9    31 1   
    24    10    11 ar  
    25    10    14 1   
    26    11    26 1   
    27    12    17 1   
    28    12    31 1   
    29    13    29 1   
    30    15    30 1   
    31    27    31 1   
    32    28    31 1   
@<TRIPOS>SUBSTRUCTURE
     1 LJM         1 TEMP              0 ****  ****    0 ROOT
