@<TRIPOS>MOLECULE
LJM
   31    32     1     0     0
SMALL
bcc


@<TRIPOS>ATOM
      1 N1           2.0740     0.2700    -1.3250 nc         1 LJM      -0.632000
      2 C4           3.3090     0.8350    -1.2900 cc         1 LJM       0.330200
      3 C5           1.8340    -0.3790    -0.2320 cd         1 LJM       0.332900
      4 C6           0.5920    -1.1230     0.0890 c          1 LJM       0.599600
      5 C7          -1.6370    -1.7240    -0.7440 c3         1 LJM       0.152300
      6 C8          -2.6860    -0.7890    -0.1980 ca         1 LJM      -0.136300
      7 C10         -4.5470     0.7170    -0.5660 ca         1 LJM      -0.173500
      8 C13         -2.7570    -0.5160     1.1670 ca         1 LJM      -0.085500
      9 C1           5.3760     2.1780     1.2960 c3         1 LJM      -0.090100
     10 C11         -4.5830     0.9640     0.7920 ca         1 LJM       0.141900
     11 C12         -3.7040     0.3620     1.6730 ca         1 LJM      -0.173500
     12 C3           4.0350     0.6180    -0.1530 cd         1 LJM      -0.157700
     13 C9          -3.5900    -0.1650    -1.0510 ca         1 LJM      -0.085500
     14 F1          -5.5040     1.8160     1.2740 f          1 LJM      -0.143900
     15 N2          -0.3370    -1.0970    -0.8700 ns         1 LJM      -0.544900
     16 O1           0.4920    -1.7010     1.1630 o          1 LJM      -0.608100
     17 S1           3.1040    -0.3450     0.9240 ss         1 LJM      -0.052300
     18 H1           3.6620     1.4150    -2.1330 h4         1 LJM       0.043100
     19 H2          -1.5400    -2.6030    -0.1070 h1         1 LJM       0.064700
     20 H3          -1.9290    -2.0770    -1.7320 h1         1 LJM       0.064700
     21 H4          -5.2510     1.1990    -1.2320 ha         1 LJM       0.151000
     22 H5          -2.0660    -0.9950     1.8480 ha         1 LJM       0.142000
     23 H6           4.7690     3.0360     1.0090 hc         1 LJM       0.040033
     24 H7           4.9720     1.7750     2.2240 hc         1 LJM       0.040033
     25 H8           6.3860     2.5320     1.4990 hc         1 LJM       0.040033
     26 H9          -3.7600     0.5700     2.7330 ha         1 LJM       0.151000
     27 H10          5.8300     1.5490    -0.7180 hc         1 LJM       0.055200
     28 H11          6.0380     0.2930     0.4810 hc         1 LJM       0.055200
     29 H12         -3.5550    -0.3680    -2.1150 ha         1 LJM       0.142000
     30 H13         -0.1500    -0.5450    -1.6940 hn         1 LJM       0.341500
     31 C2           5.3950     1.1260     0.1890 c3         1 LJM      -0.005100
@<TRIPOS>BOND
     1     1     2 1   
     2     1     3 2   
     3     2    12 2   
     4     2    18 1   
     5     3     4 1   
     6     3    17 1   
     7     4    15 1   
     8     4    16 2   
     9     5     6 1   
    10     5    15 1   
    11     5    19 1   
    12     5    20 1   
    13     6     8 ar  
    14     6    13 ar  
    15     7    10 ar  
    16     7    13 ar  
    17     7    21 1   
    18     8    11 ar  
    19     8    22 1   
    20     9    23 1   
    21     9    24 1   
    22     9    25 1   
    23     9    31 1   
    24    10    11 ar  
    25    10    14 1   
    26    11    26 1   
    27    12    17 1   
    28    12    31 1   
    29    13    29 1   
    30    15    30 1   
    31    27    31 1   
    32    28    31 1   
@<TRIPOS>SUBSTRUCTURE
     1 LJM         1 TEMP              0 ****  ****    0 ROOT
