@<TRIPOS>MOLECULE
LJO
   30    31     1     0     0
SMALL
abcg2


@<TRIPOS>ATOM
      1 N1           8.1380    -0.3240    21.1870 ns         1 LJO      -0.153000
      2 C4           7.8220     0.5250    18.9160 ca         1 LJO       0.345900
      3 C5           7.3130     0.2230    20.1780 ca         1 LJO      -0.097000
      4 C6           9.3930     0.0920    21.4860 c          1 LJO       0.616100
      5 C7          10.0470    -0.6500    22.6690 c5         1 LJO      -0.112900
      6 C8           9.2040    -0.6630    23.9920 c5         1 LJO      -0.102400
      7 C10         10.2440    -2.1810    22.3960 c5         1 LJO       0.162600
      8 N2          12.3880     0.3980    23.1550 n1         1 LJO      -0.424000
      9 C11         11.3510    -0.0420    22.9210 c1         1 LJO       0.315900
     10 O1          10.2020    -2.7810    23.6720 os         1 LJO      -0.431000
     11 C9           9.1140    -2.1540    24.3580 c5         1 LJO       0.141600
     12 O            9.9860     0.9710    20.8820 o          1 LJO      -0.547100
     13 C1           5.9550     0.4390    20.4450 ca         1 LJO      -0.070300
     14 C            5.3600     0.1310    21.7860 c3         1 LJO      -0.051800
     15 N            7.0790     1.0330    17.9330 nb         1 LJO      -0.646000
     16 C3           5.7830     1.2450    18.1830 ca         1 LJO       0.326900
     17 C2           5.1910     0.9590    19.4040 ca         1 LJO      -0.148000
     18 H1           7.7020    -1.0040    21.7910 hn         1 LJO       0.156000
     19 H2           8.8670     0.3460    18.7030 h4         1 LJO       0.041100
     20 H3           9.7190    -0.0940    24.7620 hc         1 LJO       0.069700
     21 H4           8.2250    -0.2140    23.8430 hc         1 LJO       0.069700
     22 H5           9.4230    -2.5360    21.7650 h1         1 LJO       0.067200
     23 H6          11.1950    -2.4090    21.9210 h1         1 LJO       0.067200
     24 H7           8.1660    -2.5800    24.0130 h1         1 LJO       0.057200
     25 H8           9.2320    -2.3430    25.4220 h1         1 LJO       0.057200
     26 H9           5.3760    -0.9440    21.9870 hc         1 LJO       0.047700
     27 H10          5.9270     0.6160    22.5840 hc         1 LJO       0.047700
     28 H11          4.3260     0.4680    21.8340 hc         1 LJO       0.047700
     29 H12          5.1930     1.6570    17.3720 h4         1 LJO       0.025100
     30 H13          4.1360     1.1490    19.5520 ha         1 LJO       0.124000
@<TRIPOS>BOND
     1     1     3 1   
     2     1     4 1   
     3     1    18 1   
     4     2     3 ar  
     5     2    15 ar  
     6     2    19 1   
     7     3    13 ar  
     8     4     5 1   
     9     4    12 2   
    10     5     6 1   
    11     5     7 1   
    12     5     9 1   
    13     6    11 1   
    14     6    20 1   
    15     6    21 1   
    16     7    10 1   
    17     7    22 1   
    18     7    23 1   
    19     8     9 3   
    20    10    11 1   
    21    11    24 1   
    22    11    25 1   
    23    13    14 1   
    24    13    17 ar  
    25    14    26 1   
    26    14    27 1   
    27    14    28 1   
    28    15    16 ar  
    29    16    17 ar  
    30    16    29 1   
    31    17    30 1   
@<TRIPOS>SUBSTRUCTURE
     1 LJO         1 TEMP              0 ****  ****    0 ROOT
