@<TRIPOS>MOLECULE
LJO
   30    31     1     0     0
SMALL
No Charge or Current Charge


@<TRIPOS>ATOM
      1 N1           8.2760    -0.0410    21.2850 ns         1 LJO      -0.153000
      2 C4           7.7010     0.4460    18.8960 ca         1 LJO       0.345900
      3 C5           7.3440     0.3140    20.2630 ca         1 LJO      -0.097000
      4 C6           9.6420    -0.3080    21.2530 c          1 LJO       0.616100
      5 C7          10.2020    -0.6590    22.6710 c5         1 LJO      -0.112900
      6 C8           9.1440    -0.8210    23.8320 c5         1 LJO      -0.102400
      7 C10         10.6900    -2.1240    22.6120 c5         1 LJO       0.162600
      8 N2          12.1300     1.0160    23.3240 n1         1 LJO      -0.424000
      9 C11         11.2840     0.2800    23.0120 c1         1 LJO       0.315900
     10 O1           9.4510    -2.8580    22.6140 os         1 LJO      -0.431000
     11 C9           8.5770    -2.2570    23.5970 c5         1 LJO       0.141600
     12 O           10.3190    -0.2590    20.2330 o          1 LJO      -0.547100
     13 C1           5.9960     0.5420    20.6240 ca         1 LJO      -0.070300
     14 C            5.5170     0.4220    22.0680 c3         1 LJO      -0.051800
     15 N            6.8200     0.7810    17.9240 nb         1 LJO      -0.646000
     16 C3           5.5370     0.9980    18.2830 ca         1 LJO       0.326900
     17 C2           5.0880     0.8900    19.6080 ca         1 LJO      -0.148000
     18 H1           7.8590    -0.1180    22.2020 hn         1 LJO       0.156000
     19 H2           8.7180     0.2820    18.5480 h4         1 LJO       0.041100
     20 H3           9.6320    -0.7880    24.8150 hc         1 LJO       0.069700
     21 H4           8.3710    -0.0440    23.8680 hc         1 LJO       0.069700
     22 H5          11.2730    -2.3630    21.7110 h1         1 LJO       0.067200
     23 H6          11.2790    -2.4070    23.4970 h1         1 LJO       0.067200
     24 H7           7.5520    -2.2470    23.2040 h1         1 LJO       0.057200
     25 H8           8.5930    -2.8560    24.5180 h1         1 LJO       0.057200
     26 H9           5.6700    -0.5940    22.4520 hc         1 LJO       0.047700
     27 H10          6.0560     1.1170    22.7230 hc         1 LJO       0.047700
     28 H11          4.4490     0.6480    22.1610 hc         1 LJO       0.047700
     29 H12          4.8460     1.2660    17.4830 h4         1 LJO       0.025100
     30 H13          4.0420     1.0760    19.8330 ha         1 LJO       0.124000
@<TRIPOS>BOND
     1     1     3 1   
     2     1     4 1   
     3     1    18 1   
     4     2     3 ar  
     5     2    15 ar  
     6     2    19 1   
     7     3    13 ar  
     8     4     5 1   
     9     4    12 2   
    10     5     6 1   
    11     5     7 1   
    12     5     9 1   
    13     6    11 1   
    14     6    20 1   
    15     6    21 1   
    16     7    10 1   
    17     7    22 1   
    18     7    23 1   
    19     8     9 3   
    20    10    11 1   
    21    11    24 1   
    22    11    25 1   
    23    13    14 1   
    24    13    17 ar  
    25    14    26 1   
    26    14    27 1   
    27    14    28 1   
    28    15    16 ar  
    29    16    17 ar  
    30    16    29 1   
    31    17    30 1   
@<TRIPOS>SUBSTRUCTURE
     1 LJO         1 TEMP              0 ****  ****    0 ROOT
