@<TRIPOS>MOLECULE
LJP
   44    46     1     0     0
SMALL
abcg2


@<TRIPOS>ATOM
      1 C1         166.8770   143.5240   161.4750 c3         1 LJP      -0.097600
      2 O1         167.1090   142.8650   163.7080 os         1 LJP      -0.477000
      3 C2         166.8840   142.3100   162.3960 c6         1 LJP       0.194000
      4 N2         164.1910   137.5990   165.1260 ns         1 LJP      -0.369100
      5 C3         167.9950   141.3440   161.9770 c3         1 LJP      -0.097600
      6 O3         165.0600   137.3470   167.2110 o          1 LJP      -0.585100
      7 C4         165.5150   141.6130   162.3660 c6         1 LJP      -0.044100
      8 C5         165.3780   140.6670   163.5230 cc         1 LJP      -0.039300
      9 C6         166.1370   140.8600   164.6330 cd         1 LJP      -0.284300
     10 C7         167.0660   142.0210   164.8750 c6         1 LJP       0.268300
     11 C8         168.4810   141.5600   165.2490 c3         1 LJP      -0.095100
     12 C16        163.5970   134.7640   167.4860 cc         1 LJP      -0.162000
     13 C15        162.7280   133.7660   167.1060 cd         1 LJP      -0.180000
     14 N4         162.2620   134.1110   165.8810 na         1 LJP       0.003800
     15 N3         162.7680   135.2600   165.4330 nd         1 LJP      -0.487800
     16 C14        163.5870   135.6730   166.4070 cc         1 LJP       0.189500
     17 C13        164.3440   136.9330   166.3020 c          1 LJP       0.536600
     18 C10        164.7920   138.7880   164.7850 cd         1 LJP       0.010600
     19 S1         165.9210   139.6020   165.8120 ss         1 LJP       0.295000
     20 C9         166.5110   142.9240   165.9830 c3         1 LJP      -0.095100
     21 C11        164.5730   139.4730   163.5980 cc         1 LJP      -0.261600
     22 C12        163.5700   138.9850   162.6300 c          1 LJP       0.646700
     23 O2         163.1620   137.8100   162.6540 o          1 LJP      -0.653100
     24 N1         163.0750   139.8580   161.7320 nt         1 LJP      -0.598000
     25 H1         166.6670   143.2180   160.4490 hc         1 LJP       0.044367
     26 H2         166.1130   144.2350   161.7920 hc         1 LJP       0.044367
     27 H3         167.8490   144.0200   161.4990 hc         1 LJP       0.044367
     28 H4         167.9790   140.4250   162.5610 hc         1 LJP       0.044367
     29 H5         167.8650   141.0760   160.9270 hc         1 LJP       0.044367
     30 H6         168.9690   141.8180   162.0970 hc         1 LJP       0.044367
     31 H7         164.7300   142.3760   162.3920 hc         1 LJP       0.055700
     32 H8         165.4190   141.0820   161.4180 hc         1 LJP       0.055700
     33 H10        168.4660   141.0320   166.2040 hc         1 LJP       0.045867
     34 H11        168.9010   140.8960   164.4970 hc         1 LJP       0.045867
     35 H12        169.1260   142.4340   165.3510 hc         1 LJP       0.045867
     36 H14        162.3990   132.8690   167.6030 h4         1 LJP       0.160000
     37 H15        161.6080   133.5980   165.3090 hn         1 LJP       0.379000
     38 H16        166.4890   142.3920   166.9350 hc         1 LJP       0.045867
     39 H17        167.1500   143.8020   166.0880 hc         1 LJP       0.045867
     40 H18        165.5000   143.2460   165.7330 hc         1 LJP       0.045867
     41 H19        162.3920   139.5300   161.0670 hn         1 LJP       0.317500
     42 H20        163.3080   140.8350   161.7280 hn         1 LJP       0.317500
     43 H21        163.6240   137.2000   164.3760 hn         1 LJP       0.389500
     44 H13        164.1550   134.8370   168.4030 ha         1 LJP       0.163000
@<TRIPOS>BOND
     1     1     3 1   
     2     1    25 1   
     3     1    26 1   
     4     1    27 1   
     5     2     3 1   
     6     2    10 1   
     7     3     5 1   
     8     3     7 1   
     9     4    17 1   
    10     4    18 1   
    11     4    43 1   
    12     5    28 1   
    13     5    29 1   
    14     5    30 1   
    15     6    17 2   
    16     7     8 1   
    17     7    31 1   
    18     7    32 1   
    19     8     9 2   
    20     8    21 1   
    21     9    10 1   
    22     9    19 1   
    23    10    11 1   
    24    10    20 1   
    25    11    33 1   
    26    11    34 1   
    27    11    35 1   
    28    12    13 2   
    29    12    16 1   
    30    12    44 1   
    31    13    14 1   
    32    13    36 1   
    33    14    15 1   
    34    14    37 1   
    35    15    16 2   
    36    16    17 1   
    37    18    19 1   
    38    18    21 2   
    39    20    38 1   
    40    20    39 1   
    41    20    40 1   
    42    21    22 1   
    43    22    23 2   
    44    22    24 1   
    45    24    41 1   
    46    24    42 1   
@<TRIPOS>SUBSTRUCTURE
     1 LJP         1 TEMP              0 ****  ****    0 ROOT
