@<TRIPOS>MOLECULE
LJP
   44    46     1     0     0
SMALL
No Charge or Current Charge


@<TRIPOS>ATOM
      1 C1         166.6930   143.5630   161.3370 c3         1 LJP      -0.097600
      2 O1         167.0310   143.0270   163.6340 os         1 LJP      -0.477000
      3 C2         166.8100   142.3920   162.3510 c6         1 LJP       0.194000
      4 N2         164.2200   137.5890   165.2420 ns         1 LJP      -0.369100
      5 C3         168.0520   141.5390   161.9500 c3         1 LJP      -0.097600
      6 O3         165.0660   137.1140   167.3250 o          1 LJP      -0.585100
      7 C4         165.4990   141.5480   162.3750 c6         1 LJP      -0.044100
      8 C5         165.4360   140.6270   163.5860 cc         1 LJP      -0.039300
      9 C6         166.1980   140.8770   164.7000 cd         1 LJP      -0.284300
     10 C7         167.1010   142.1200   164.8570 c6         1 LJP       0.268300
     11 C8         168.5900   141.6750   165.1650 c3         1 LJP      -0.095100
     12 C16        163.4110   134.6910   167.4260 cc         1 LJP      -0.162000
     13 C15        162.5290   133.7090   167.0950 cd         1 LJP      -0.180000
     14 N4         162.0640   134.0720   165.8230 na         1 LJP       0.003800
     15 N3         162.6410   135.2580   165.3630 nd         1 LJP      -0.487800
     16 C14        163.4500   135.6050   166.3570 cc         1 LJP       0.189500
     17 C13        164.3290   136.8210   166.3890 c          1 LJP       0.536600
     18 C10        164.8630   138.7710   164.8960 cd         1 LJP       0.010600
     19 S1         166.0330   139.6190   165.9320 ss         1 LJP       0.295000
     20 C9         166.6150   142.9360   166.1280 c3         1 LJP      -0.095100
     21 C11        164.6260   139.4300   163.6990 cc         1 LJP      -0.261600
     22 C12        163.6260   138.9110   162.7040 c          1 LJP       0.646700
     23 O2         163.0540   137.8370   162.8050 o          1 LJP      -0.653100
     24 N1         163.3070   139.6850   161.6540 nt         1 LJP      -0.598000
     25 H1         166.5020   143.1940   160.3220 hc         1 LJP       0.044367
     26 H2         165.8710   144.2380   161.6020 hc         1 LJP       0.044367
     27 H3         167.6140   144.1580   161.3070 hc         1 LJP       0.044367
     28 H4         168.0640   140.5690   162.4580 hc         1 LJP       0.044367
     29 H5         168.0490   141.3210   160.8760 hc         1 LJP       0.044367
     30 H6         168.9900   142.0610   162.1750 hc         1 LJP       0.044367
     31 H7         164.6300   142.2200   162.3720 hc         1 LJP       0.055700
     32 H8         165.4710   140.9800   161.4370 hc         1 LJP       0.055700
     33 H10        168.6830   141.2600   166.1750 hc         1 LJP       0.045867
     34 H11        168.9460   140.9010   164.4790 hc         1 LJP       0.045867
     35 H12        169.2760   142.5270   165.0960 hc         1 LJP       0.045867
     36 H14        162.2030   132.8210   167.6260 h4         1 LJP       0.160000
     37 H15        161.3830   133.5600   165.2620 hn         1 LJP       0.379000
     38 H16        166.6820   142.3400   167.0450 hc         1 LJP       0.045867
     39 H17        167.2210   143.8380   166.2750 hc         1 LJP       0.045867
     40 H18        165.5710   143.2500   166.0160 hc         1 LJP       0.045867
     41 H19        162.6240   139.3520   160.9920 hn         1 LJP       0.317500
     42 H20        163.7120   140.6000   161.5620 hn         1 LJP       0.317500
     43 H21        163.5650   137.2000   164.5630 hn         1 LJP       0.389500
     44 H13        163.9900   134.7740   168.3420 ha         1 LJP       0.163000
@<TRIPOS>BOND
     1     1     3 1   
     2     1    25 1   
     3     1    26 1   
     4     1    27 1   
     5     2     3 1   
     6     2    10 1   
     7     3     5 1   
     8     3     7 1   
     9     4    17 1   
    10     4    18 1   
    11     4    43 1   
    12     5    28 1   
    13     5    29 1   
    14     5    30 1   
    15     6    17 2   
    16     7     8 1   
    17     7    31 1   
    18     7    32 1   
    19     8     9 2   
    20     8    21 1   
    21     9    10 1   
    22     9    19 1   
    23    10    11 1   
    24    10    20 1   
    25    11    33 1   
    26    11    34 1   
    27    11    35 1   
    28    12    13 2   
    29    12    16 1   
    30    12    44 1   
    31    13    14 1   
    32    13    36 1   
    33    14    15 1   
    34    14    37 1   
    35    15    16 2   
    36    16    17 1   
    37    18    19 1   
    38    18    21 2   
    39    20    38 1   
    40    20    39 1   
    41    20    40 1   
    42    21    22 1   
    43    22    23 2   
    44    22    24 1   
    45    24    41 1   
    46    24    42 1   
@<TRIPOS>SUBSTRUCTURE
     1 LJP         1 TEMP              0 ****  ****    0 ROOT
