@<TRIPOS>MOLECULE
LJR
   29    29     1     0     0
SMALL
No Charge or Current Charge


@<TRIPOS>ATOM
      1 N1          65.5090     4.0720    46.1020 n7         1 LJR      -0.876300
      2 C4          68.4240    -0.2450    46.6330 c6         1 LJR      -0.073400
      3 C5          69.0850    -1.3470    47.4970 c6         1 LJR      -0.072900
      4 C6          70.1700    -0.7520    48.4260 c6         1 LJR      -0.075400
      5 C7          69.5850     0.3770    49.3070 c6         1 LJR      -0.072900
      6 C8          68.9200     1.4790    48.4440 c6         1 LJR      -0.073400
      7 C1          64.5280     3.4150    45.2140 c3         1 LJR       0.186100
      8 S1          66.1300     3.2210    47.3950 s6         1 LJR       1.203100
      9 O1          66.9590     4.1770    48.1310 o          1 LJR      -0.534500
     10 O2          64.9920     2.5730    48.0510 o          1 LJR      -0.534500
     11 C2          67.1640     1.9740    46.5960 c3         1 LJR      -0.346400
     12 C3          67.8250     0.8920    47.5060 c6         1 LJR      -0.022700
     13 H1          66.3580     4.2520    45.5680 hn         1 LJR       0.479000
     14 H3          69.1670     0.1710    45.9390 hc         1 LJR       0.043450
     15 H4          68.3190    -1.8550    48.0990 hc         1 LJR       0.041950
     16 H5          69.5300    -2.1140    46.8480 hc         1 LJR       0.041950
     17 H6          70.5910    -1.5420    49.0620 hc         1 LJR       0.039700
     18 H7          71.0000    -0.3600    47.8220 hc         1 LJR       0.039700
     19 H8          70.3810     0.8170    49.9230 hc         1 LJR       0.041950
     20 H9          68.8470    -0.0420    50.0040 hc         1 LJR       0.041950
     21 H10         69.6870     1.9920    47.8470 hc         1 LJR       0.043450
     22 H11         68.4890     2.2350    49.1140 hc         1 LJR       0.043450
     23 H12         64.2340     4.0910    44.3990 h1         1 LJR       0.052700
     24 H13         64.9340     2.5030    44.7570 h1         1 LJR       0.052700
     25 H14         63.6160     3.1450    45.7640 h1         1 LJR       0.052700
     26 H15         66.5070     1.4670    45.8830 h1         1 LJR       0.084200
     27 H16         67.9380     2.5150    46.0400 h1         1 LJR       0.084200
     28 H17         67.0230     0.4610    48.1250 hc         1 LJR       0.065700
     29 H2          67.6370    -0.6940    46.0110 hc         1 LJR       0.043450
@<TRIPOS>BOND
     1     1     7 1   
     2     1     8 1   
     3     1    13 1   
     4     2     3 1   
     5     2    12 1   
     6     2    14 1   
     7     2    29 1   
     8     3     4 1   
     9     3    15 1   
    10     3    16 1   
    11     4     5 1   
    12     4    17 1   
    13     4    18 1   
    14     5     6 1   
    15     5    19 1   
    16     5    20 1   
    17     6    12 1   
    18     6    21 1   
    19     6    22 1   
    20     7    23 1   
    21     7    24 1   
    22     7    25 1   
    23     8     9 2   
    24     8    10 2   
    25     8    11 1   
    26    11    12 1   
    27    11    26 1   
    28    11    27 1   
    29    12    28 1   
@<TRIPOS>SUBSTRUCTURE
     1 LJR         1 TEMP              0 ****  ****    0 ROOT
