@<TRIPOS>MOLECULE
LJR
   29    29     1     0     0
SMALL
abcg2


@<TRIPOS>ATOM
      1 N1          65.4700     4.0130    46.1300 n7         1 LJR      -0.876300
      2 C4          68.4380    -0.2440    46.6410 c6         1 LJR      -0.073400
      3 C5          69.0380    -1.3350    47.5290 c6         1 LJR      -0.072900
      4 C6          70.0990    -0.7650    48.4720 c6         1 LJR      -0.075400
      5 C7          69.5340     0.3880    49.3030 c6         1 LJR      -0.072900
      6 C8          68.9260     1.4780    48.4190 c6         1 LJR      -0.073400
      7 C1          64.5160     3.3400    45.2420 c3         1 LJR       0.186100
      8 S1          66.2260     3.1760    47.3190 s6         1 LJR       1.203100
      9 O1          67.0500     4.1420    48.0150 o          1 LJR      -0.534500
     10 O2          65.2040     2.4690    48.0610 o          1 LJR      -0.534500
     11 C2          67.2740     1.9590    46.5260 c3         1 LJR      -0.346400
     12 C3          67.8610     0.9100    47.4730 c6         1 LJR      -0.022700
     13 H1          66.1140     4.6410    45.6610 hn         1 LJR       0.479000
     14 H3          69.2140     0.1500    45.9750 hc         1 LJR       0.043450
     15 H4          68.2390    -1.7940    48.1220 hc         1 LJR       0.041950
     16 H5          69.4660    -2.1260    46.9080 hc         1 LJR       0.041950
     17 H6          70.4840    -1.5510    49.1270 hc         1 LJR       0.039700
     18 H7          70.9470    -0.4000    47.8810 hc         1 LJR       0.039700
     19 H8          70.3140     0.8180    49.9360 hc         1 LJR       0.041950
     20 H9          68.7600     0.0010    49.9760 hc         1 LJR       0.041950
     21 H10         69.7150     1.9420    47.8150 hc         1 LJR       0.043450
     22 H11         68.4980     2.2670    49.0370 hc         1 LJR       0.043450
     23 H12         63.9550     4.1080    44.7120 h1         1 LJR       0.052700
     24 H13         65.0030     2.6870    44.5140 h1         1 LJR       0.052700
     25 H14         63.8230     2.7560    45.8430 h1         1 LJR       0.052700
     26 H15         66.6350     1.4800    45.7820 h1         1 LJR       0.084200
     27 H16         68.0500     2.5250    46.0070 h1         1 LJR       0.084200
     28 H17         67.0410     0.5070    48.0760 hc         1 LJR       0.065700
     29 H2          67.6540    -0.6630    46.0040 hc         1 LJR       0.043450
@<TRIPOS>BOND
     1     1     7 1   
     2     1     8 1   
     3     1    13 1   
     4     2     3 1   
     5     2    12 1   
     6     2    14 1   
     7     2    29 1   
     8     3     4 1   
     9     3    15 1   
    10     3    16 1   
    11     4     5 1   
    12     4    17 1   
    13     4    18 1   
    14     5     6 1   
    15     5    19 1   
    16     5    20 1   
    17     6    12 1   
    18     6    21 1   
    19     6    22 1   
    20     7    23 1   
    21     7    24 1   
    22     7    25 1   
    23     8     9 2   
    24     8    10 2   
    25     8    11 1   
    26    11    12 1   
    27    11    26 1   
    28    11    27 1   
    29    12    28 1   
@<TRIPOS>SUBSTRUCTURE
     1 LJR         1 TEMP              0 ****  ****    0 ROOT
