@<TRIPOS>MOLECULE
LJT
   61    64     1     0     0
SMALL
abcg2


@<TRIPOS>ATOM
      1 CAA         49.3730    34.7530    51.4870 c3         1 LJT       0.144900
      2 CAB         49.2380    38.6970    55.1750 c3         1 LJT       0.144900
      3 CAE         56.6090    34.0870    56.2730 ca         1 LJT      -0.131000
      4 CAF         55.9790    34.0460    55.0370 ca         1 LJT      -0.048000
      5 CAG         51.7720    35.4410    52.7710 ca         1 LJT      -0.117000
      6 CAH         55.5460    36.2220    56.7080 ca         1 LJT      -0.157000
      7 CAI         51.7060    37.4730    54.6570 ca         1 LJT      -0.209000
      8 CAJ         57.1310    43.3260    48.3580 c3         1 LJT       0.162600
      9 CAK         54.1290    39.6350    54.4480 c3         1 LJT      -0.088400
     10 CAM         55.1400    39.4380    53.3260 c3         1 LJT       0.168800
     11 CAN         55.5960    41.0450    49.9740 c6         1 LJT       0.164800
     12 CAO         55.3280    42.7600    51.5850 c6         1 LJT       0.164800
     13 CAP         55.7510    40.0260    51.0860 c6         1 LJT       0.164300
     14 CAQ         55.4860    41.7430    52.6990 c6         1 LJT       0.164300
     15 CAR         54.2630    38.5700    55.5300 c3         1 LJT       0.082600
     16 CAV         56.3820    35.1830    57.0880 ca         1 LJT       0.153000
     17 CAW         50.5710    36.0690    53.0450 ca         1 LJT       0.093100
     18 CAX         50.5420    37.1020    54.0050 ca         1 LJT       0.147100
     19 CAY         55.1740    35.0930    54.6200 ca         1 LJT      -0.129000
     20 CAZ         52.9440    35.8550    53.4030 ca         1 LJT      -0.128000
     21 CBA         54.9450    36.1980    55.4500 ca         1 LJT       0.039000
     22 CBB         52.9270    36.8650    54.3490 ca         1 LJT       0.025000
     23 NBC         56.0620    42.3530    50.4020 n3         1 LJT      -0.722600
     24 NBD         55.0300    40.4320    52.2770 n3         1 LJT      -0.719600
     25 NBE         54.1190    37.2240    54.9990 na         1 LJT      -0.107000
     26 OAC         56.9980    42.2410    47.4640 oh         1 LJT      -0.664000
     27 OAS         49.3920    35.7710    52.4670 os         1 LJT      -0.320100
     28 OAT         49.3370    37.6530    54.2270 os         1 LJT      -0.317100
     29 SAU         54.4980    35.1280    52.9920 ss         1 LJT       0.026000
     30 H1          48.3470    34.6820    51.1350 h1         1 LJT       0.040700
     31 H2          50.0200    34.9920    50.6390 h1         1 LJT       0.040700
     32 H3          49.6720    33.7850    51.8970 h1         1 LJT       0.040700
     33 H4          48.1930    38.9940    55.1970 h1         1 LJT       0.041367
     34 H5          49.5330    38.3710    56.1750 h1         1 LJT       0.041367
     35 H6          49.8430    39.5620    54.8920 h1         1 LJT       0.041367
     36 H7          57.2570    33.2810    56.5870 ha         1 LJT       0.133000
     37 H8          56.1370    33.1970    54.3840 ha         1 LJT       0.129000
     38 H9          51.8280    34.6330    52.0540 ha         1 LJT       0.132000
     39 H10         55.3670    37.0400    57.3920 ha         1 LJT       0.130000
     40 H11         51.6750    38.2420    55.4160 ha         1 LJT       0.124000
     41 H12         58.0780    43.2820    48.9100 h1         1 LJT       0.023200
     42 H13         54.2720    40.5990    54.9410 hc         1 LJT       0.053200
     43 H14         53.1210    39.6530    54.0260 hc         1 LJT       0.053200
     44 H15         56.0530    44.3400    49.8430 h1         1 LJT       0.036700
     45 H16         55.0270    43.3450    48.8270 h1         1 LJT       0.036700
     46 H17         54.9720    38.4550    52.8780 h1         1 LJT       0.041200
     47 H18         56.1590    39.4100    53.7540 h1         1 LJT       0.041200
     48 H19         54.5380    41.0810    49.6600 h1         1 LJT       0.041200
     49 H20         56.1720    40.7120    49.1130 h1         1 LJT       0.041200
     50 H21         55.7120    43.7200    51.9360 h1         1 LJT       0.041200
     51 H22         54.2530    42.8980    51.3750 h1         1 LJT       0.041200
     52 H23         55.3580    39.0670    50.7390 h1         1 LJT       0.036200
     53 H24         56.8270    39.8790    51.2900 h1         1 LJT       0.036200
     54 H25         56.5420    41.7170    53.0210 h1         1 LJT       0.036200
     55 H26         54.9010    42.0810    53.5560 h1         1 LJT       0.036200
     56 H27         55.2630    38.6470    55.9550 h1         1 LJT       0.043700
     57 H28         53.5650    38.7650    56.3520 h1         1 LJT       0.043700
     58 H31         57.1220    44.2810    47.8160 h1         1 LJT       0.023200
     59 H29         57.7830    42.2140    46.9100 ho         1 LJT       0.442000
     60 CL          57.1360    35.2530    58.6470 cl         1 LJT      -0.203000
     61 CAL         55.9940    43.3610    49.3600 c3         1 LJT       0.171800
@<TRIPOS>BOND
     1     1    27 1   
     2     1    30 1   
     3     1    31 1   
     4     1    32 1   
     5     2    28 1   
     6     2    33 1   
     7     2    34 1   
     8     2    35 1   
     9     3     4 ar  
    10     3    16 ar  
    11     3    36 1   
    12     4    19 ar  
    13     4    37 1   
    14     5    17 ar  
    15     5    20 ar  
    16     5    38 1   
    17     6    16 ar  
    18     6    21 ar  
    19     6    39 1   
    20     7    18 ar  
    21     7    22 ar  
    22     7    40 1   
    23     8    26 1   
    24     8    41 1   
    25     8    58 1   
    26     8    61 1   
    27     9    10 1   
    28     9    15 1   
    29     9    42 1   
    30     9    43 1   
    31    10    24 1   
    32    10    46 1   
    33    10    47 1   
    34    11    13 1   
    35    11    23 1   
    36    11    48 1   
    37    11    49 1   
    38    12    14 1   
    39    12    23 1   
    40    12    50 1   
    41    12    51 1   
    42    13    24 1   
    43    13    52 1   
    44    13    53 1   
    45    14    24 1   
    46    14    54 1   
    47    14    55 1   
    48    15    25 1   
    49    15    56 1   
    50    15    57 1   
    51    16    60 1   
    52    17    18 ar  
    53    17    27 1   
    54    18    28 1   
    55    19    21 ar  
    56    19    29 1   
    57    20    22 ar  
    58    20    29 1   
    59    21    25 1   
    60    22    25 1   
    61    23    61 1   
    62    26    59 1   
    63    44    61 1   
    64    45    61 1   
@<TRIPOS>SUBSTRUCTURE
     1 LJT         1 TEMP              0 ****  ****    0 ROOT
