@<TRIPOS>MOLECULE
LJT
   61    64     1     0     0
SMALL
No Charge or Current Charge


@<TRIPOS>ATOM
      1 CAA         49.2010    35.1340    51.1730 c3         1 LJT       0.144900
      2 CAB         48.6810    37.9340    56.0080 c3         1 LJT       0.144900
      3 CAE         56.9960    34.6090    55.6710 ca         1 LJT      -0.131000
      4 CAF         56.3170    34.7260    54.4470 ca         1 LJT      -0.048000
      5 CAG         51.6020    35.8410    52.6490 ca         1 LJT      -0.117000
      6 CAH         55.5050    36.2600    56.6570 ca         1 LJT      -0.157000
      7 CAI         51.3410    37.2490    55.0710 ca         1 LJT      -0.209000
      8 CAJ         57.4830    42.9300    48.1260 c3         1 LJT       0.162600
      9 CAK         53.9710    39.7040    54.5130 c3         1 LJT      -0.088400
     10 CAM         55.1670    39.4890    53.5580 c3         1 LJT       0.168800
     11 CAN         56.1950    40.8230    50.0730 c6         1 LJT       0.164800
     12 CAO         55.3050    42.6980    51.3660 c6         1 LJT       0.164800
     13 CAP         56.2050    39.9430    51.3650 c6         1 LJT       0.164300
     14 CAQ         55.3180    41.8180    52.6580 c6         1 LJT       0.164300
     15 CAR         53.9510    38.7130    55.6980 c3         1 LJT       0.082600
     16 CAV         56.5860    35.3720    56.7740 ca         1 LJT       0.153000
     17 CAW         50.3150    36.1860    53.1200 ca         1 LJT       0.093100
     18 CAX         50.1860    36.8910    54.3400 ca         1 LJT       0.147100
     19 CAY         55.2310    35.6120    54.3270 ca         1 LJT      -0.129000
     20 CAZ         52.7460    36.1980    53.3840 ca         1 LJT      -0.128000
     21 CBA         54.8260    36.3940    55.4300 ca         1 LJT       0.039000
     22 CBB         52.6230    36.9110    54.5930 ca         1 LJT       0.025000
     23 NBC         56.3430    42.2830    50.3710 n3         1 LJT      -0.722600
     24 NBD         55.1660    40.3590    52.3560 n3         1 LJT      -0.719600
     25 NBE         53.7650    37.2950    55.3030 na         1 LJT      -0.107000
     26 OAC         57.2000    41.8390    47.2300 oh         1 LJT      -0.664000
     27 OAS         49.1660    35.8490    52.4210 os         1 LJT      -0.320100
     28 OAT         48.9140    37.2140    54.7850 os         1 LJT      -0.317100
     29 SAU         54.3570    35.7170    52.7690 ss         1 LJT       0.026000
     30 H1          48.1830    34.9770    50.7970 h1         1 LJT       0.040700
     31 H2          49.7590    35.6990    50.4160 h1         1 LJT       0.040700
     32 H3          49.6720    34.1510    51.3000 h1         1 LJT       0.040700
     33 H4          47.6050    38.0820    56.1620 h1         1 LJT       0.041367
     34 H5          49.0740    37.3790    56.8690 h1         1 LJT       0.041367
     35 H6          49.1580    38.9220    55.9760 h1         1 LJT       0.041367
     36 H7          57.8340    33.9230    55.7670 ha         1 LJT       0.133000
     37 H8          56.6300    34.1260    53.5950 ha         1 LJT       0.129000
     38 H9          51.7320    35.2930    51.7210 ha         1 LJT       0.132000
     39 H10         55.1970    36.8400    57.5230 ha         1 LJT       0.130000
     40 H11         51.2580    37.7850    56.0100 ha         1 LJT       0.124000
     41 H12         58.4260    42.7600    48.6620 h1         1 LJT       0.023200
     42 H13         54.0080    40.7180    54.9250 hc         1 LJT       0.053200
     43 H14         53.0340    39.6230    53.9490 hc         1 LJT       0.053200
     44 H15         56.4150    44.2010    49.4880 h1         1 LJT       0.036700
     45 H16         55.3730    43.0700    48.6370 h1         1 LJT       0.036700
     46 H17         55.1490    38.4410    53.2330 h1         1 LJT       0.041200
     47 H18         56.0990    39.6280    54.1230 h1         1 LJT       0.041200
     48 H19         55.2550    40.6390    49.5310 h1         1 LJT       0.041200
     49 H20         57.0130    40.4740    49.4280 h1         1 LJT       0.041200
     50 H21         55.4570    43.7470    51.6590 h1         1 LJT       0.041200
     51 H22         54.3040    42.6340    50.9140 h1         1 LJT       0.041200
     52 H23         56.0510    38.8940    51.0720 h1         1 LJT       0.036200
     53 H24         57.2050    40.0040    51.8190 h1         1 LJT       0.036200
     54 H25         56.2620    41.9970    53.1940 h1         1 LJT       0.036200
     55 H26         54.5060    42.1670    53.3100 h1         1 LJT       0.036200
     56 H27         54.8920    38.8170    56.2510 h1         1 LJT       0.043700
     57 H28         53.1430    38.9930    56.3840 h1         1 LJT       0.043700
     58 H31         57.6010    43.8530    47.5430 h1         1 LJT       0.023200
     59 H29         57.9680    41.7650    46.6210 ho         1 LJT       0.442000
     60 Cl          57.4290    35.2180    58.3100 cl         1 LJT      -0.203000
     61 CAL         56.3360    43.1560    49.1590 c3         1 LJT       0.171800
@<TRIPOS>BOND
     1     1    27 1   
     2     1    30 1   
     3     1    31 1   
     4     1    32 1   
     5     2    28 1   
     6     2    33 1   
     7     2    34 1   
     8     2    35 1   
     9     3     4 ar  
    10     3    16 ar  
    11     3    36 1   
    12     4    19 ar  
    13     4    37 1   
    14     5    17 ar  
    15     5    20 ar  
    16     5    38 1   
    17     6    16 ar  
    18     6    21 ar  
    19     6    39 1   
    20     7    18 ar  
    21     7    22 ar  
    22     7    40 1   
    23     8    26 1   
    24     8    41 1   
    25     8    58 1   
    26     8    61 1   
    27     9    10 1   
    28     9    15 1   
    29     9    42 1   
    30     9    43 1   
    31    10    24 1   
    32    10    46 1   
    33    10    47 1   
    34    11    13 1   
    35    11    23 1   
    36    11    48 1   
    37    11    49 1   
    38    12    14 1   
    39    12    23 1   
    40    12    50 1   
    41    12    51 1   
    42    13    24 1   
    43    13    52 1   
    44    13    53 1   
    45    14    24 1   
    46    14    54 1   
    47    14    55 1   
    48    15    25 1   
    49    15    56 1   
    50    15    57 1   
    51    16    60 1   
    52    17    18 ar  
    53    17    27 1   
    54    18    28 1   
    55    19    21 ar  
    56    19    29 1   
    57    20    22 ar  
    58    20    29 1   
    59    21    25 1   
    60    22    25 1   
    61    23    61 1   
    62    26    59 1   
    63    44    61 1   
    64    45    61 1   
@<TRIPOS>SUBSTRUCTURE
     1 LJT         1 TEMP              0 ****  ****    0 ROOT
