@<TRIPOS>MOLECULE
LJU
   43    44     1     0     0
SMALL
No Charge or Current Charge


@<TRIPOS>ATOM
      1 C1          19.0710    12.5170    21.1690 c3         1 LJU       0.145900
      2 C2          21.2330    13.2900    22.0980 ca         1 LJU       0.106100
      3 C3          20.7920    13.1210    23.4320 ca         1 LJU      -0.160000
      4 C4          21.6450    13.4230    24.5140 ca         1 LJU      -0.086300
      5 C5          21.1490    13.2480    25.9530 c3         1 LJU       0.233600
      6 C6          21.0360    14.5890    26.7330 c3         1 LJU      -0.053400
      7 C10         21.0910    14.4650    30.5790 ca         1 LJU      -0.178000
      8 C11         19.8390    13.9000    30.8730 ca         1 LJU       0.113100
      9 C12         18.9550    13.5520    29.8230 ca         1 LJU       0.111100
     10 C13         16.7660    12.6140    29.1390 c3         1 LJU       0.145900
     11 C16         23.3940    14.0670    22.9340 ca         1 LJU      -0.181000
     12 C17         22.5450    13.7680    21.8560 ca         1 LJU       0.114100
     13 O1          20.4160    13.0030    21.0160 os         1 LJU      -0.320100
     14 O2          22.0240    12.3590    26.6560 oh         1 LJU      -0.653000
     15 C7          20.0970    15.5920    26.0100 c3         1 LJU       0.172600
     16 O3          20.1010    16.8590    26.6820 oh         1 LJU      -0.652000
     17 C8          20.6040    14.3490    28.1890 ca         1 LJU      -0.079300
     18 C9          21.4700    14.6880    29.2460 ca         1 LJU      -0.091000
     19 O5          17.7260    12.9950    30.1410 os         1 LJU      -0.320100
     20 C14         19.3470    13.7790    28.4830 ca         1 LJU      -0.166000
     21 C15         22.9480    13.8960    24.2550 ca         1 LJU      -0.074000
     22 O6          23.0040    13.9440    20.5780 oh         1 LJU      -0.514100
     23 H1          18.6110    12.3580    20.1870 h1         1 LJU       0.038700
     24 H2          19.0620    11.5600    21.7080 h1         1 LJU       0.038700
     25 H3          18.4560    13.2390    21.7200 h1         1 LJU       0.038700
     26 H4          19.7910    12.7580    23.6440 ha         1 LJU       0.115000
     27 H5          20.1470    12.8010    25.9140 h1         1 LJU       0.030700
     28 H6          22.0340    15.0450    26.7310 hc         1 LJU       0.074700
     29 H7          21.7760    14.7340    31.3800 ha         1 LJU       0.116000
     30 H8          15.8690    12.1980    29.6130 h1         1 LJU       0.039033
     31 H9          16.4630    13.4820    28.5400 h1         1 LJU       0.039033
     32 H10         17.1830    11.8500    28.4700 h1         1 LJU       0.039033
     33 H11         24.4030    14.4320    22.7560 ha         1 LJU       0.115000
     34 H12         21.7310    12.3770    27.5930 ho         1 LJU       0.454000
     35 H13         19.0790    15.1820    25.9760 h1         1 LJU       0.020700
     36 H14         20.4330    15.7270    24.9740 h1         1 LJU       0.020700
     37 H15         19.4740    17.4400    26.1980 ho         1 LJU       0.442000
     38 H16         22.4430    15.1290    29.0350 ha         1 LJU       0.118000
     39 H17         20.2310    13.9970    32.7520 ho         1 LJU       0.459000
     40 H18         18.6850    13.5210    27.6620 ha         1 LJU       0.115000
     41 H19         23.6170    14.1280    25.0800 ha         1 LJU       0.125000
     42 H20         23.9260    14.2760    20.6210 ho         1 LJU       0.460000
     43 O4          19.4930    13.6920    32.1830 oh         1 LJU      -0.514100
@<TRIPOS>BOND
     1     1    13 1   
     2     1    23 1   
     3     1    24 1   
     4     1    25 1   
     5     2     3 ar  
     6     2    12 ar  
     7     2    13 1   
     8     3     4 ar  
     9     3    26 1   
    10     4     5 1   
    11     4    21 ar  
    12     5     6 1   
    13     5    14 1   
    14     5    27 1   
    15     6    15 1   
    16     6    17 1   
    17     6    28 1   
    18     7     8 ar  
    19     7    18 ar  
    20     7    29 1   
    21     8     9 ar  
    22     8    43 1   
    23     9    19 1   
    24     9    20 ar  
    25    10    19 1   
    26    10    30 1   
    27    10    31 1   
    28    10    32 1   
    29    11    12 ar  
    30    11    21 ar  
    31    11    33 1   
    32    12    22 1   
    33    14    34 1   
    34    15    16 1   
    35    15    35 1   
    36    15    36 1   
    37    16    37 1   
    38    17    18 ar  
    39    17    20 ar  
    40    18    38 1   
    41    20    40 1   
    42    21    41 1   
    43    22    42 1   
    44    39    43 1   
@<TRIPOS>SUBSTRUCTURE
     1 LJU         1 TEMP              0 ****  ****    0 ROOT
