@<TRIPOS>MOLECULE
LJU
   43    44     1     0     0
SMALL
abcg2


@<TRIPOS>ATOM
      1 C1          19.1360    12.7810    21.2430 c3         1 LJU       0.145900
      2 C2          21.2450    13.3350    22.1660 ca         1 LJU       0.106100
      3 C3          20.8110    13.1570    23.4730 ca         1 LJU      -0.160000
      4 C4          21.6630    13.3760    24.5560 ca         1 LJU      -0.086300
      5 C5          21.1520    13.2050    25.9640 c3         1 LJU       0.233600
      6 C6          20.9770    14.5610    26.6820 c3         1 LJU      -0.053400
      7 C10         21.0840    14.5230    30.4830 ca         1 LJU      -0.178000
      8 C11         19.8640    13.9640    30.8110 ca         1 LJU       0.113100
      9 C12         18.9840    13.5840    29.7790 ca         1 LJU       0.111100
     10 C13         16.8950    12.6340    29.1950 c3         1 LJU       0.145900
     11 C16         23.4150    13.9460    23.0080 ca         1 LJU      -0.181000
     12 C17         22.5720    13.7330    21.9300 ca         1 LJU       0.114100
     13 O1          20.4880    13.1460    21.0670 os         1 LJU      -0.320100
     14 O2          22.0620    12.3790    26.6520 oh         1 LJU      -0.653000
     15 C7          19.9800    15.4440    25.9410 c3         1 LJU       0.172600
     16 O3          19.8150    16.6410    26.6630 oh         1 LJU      -0.652000
     17 C8          20.5860    14.3570    28.1260 ca         1 LJU      -0.079300
     18 C9          21.4440    14.7160    29.1500 ca         1 LJU      -0.091000
     19 O5          17.8170    13.0450    30.1820 os         1 LJU      -0.320100
     20 C14         19.3530    13.7820    28.4590 ca         1 LJU      -0.166000
     21 C15         22.9680    13.7720    24.3130 ca         1 LJU      -0.074000
     22 O6          22.9470    13.8840    20.6430 oh         1 LJU      -0.514100
     23 H1          18.7040    12.7030    20.2480 h1         1 LJU       0.038700
     24 H2          19.0330    11.8160    21.7460 h1         1 LJU       0.038700
     25 H3          18.5780    13.5320    21.8100 h1         1 LJU       0.038700
     26 H4          19.7940    12.8430    23.6700 ha         1 LJU       0.115000
     27 H5          20.1620    12.7260    25.9110 h1         1 LJU       0.030700
     28 H6          21.9490    15.0670    26.6680 hc         1 LJU       0.074700
     29 H7          21.7680    14.8160    31.2720 ha         1 LJU       0.116000
     30 H8          16.0340    12.2320    29.7250 h1         1 LJU       0.039033
     31 H9          16.5650    13.4690    28.5700 h1         1 LJU       0.039033
     32 H10         17.3060    11.8540    28.5490 h1         1 LJU       0.039033
     33 H11         24.4400    14.2530    22.8290 ha         1 LJU       0.115000
     34 H12         21.8160    12.3690    27.5840 ho         1 LJU       0.454000
     35 H13         19.0280    14.9060    25.8260 h1         1 LJU       0.020700
     36 H14         20.3550    15.6350    24.9290 h1         1 LJU       0.020700
     37 H15         19.1920    17.1940    26.1820 ho         1 LJU       0.442000
     38 H16         22.4040    15.1620    28.9210 ha         1 LJU       0.118000
     39 H17         20.1230    14.0520    32.6980 ho         1 LJU       0.459000
     40 H18         18.6750    13.4950    27.6640 ha         1 LJU       0.115000
     41 H19         23.6530    13.9510    25.1320 ha         1 LJU       0.125000
     42 H20         23.8720    14.1510    20.5990 ho         1 LJU       0.460000
     43 O4          19.4490    13.7540    32.0770 oh         1 LJU      -0.514100
@<TRIPOS>BOND
     1     1    13 1   
     2     1    23 1   
     3     1    24 1   
     4     1    25 1   
     5     2     3 ar  
     6     2    12 ar  
     7     2    13 1   
     8     3     4 ar  
     9     3    26 1   
    10     4     5 1   
    11     4    21 ar  
    12     5     6 1   
    13     5    14 1   
    14     5    27 1   
    15     6    15 1   
    16     6    17 1   
    17     6    28 1   
    18     7     8 ar  
    19     7    18 ar  
    20     7    29 1   
    21     8     9 ar  
    22     8    43 1   
    23     9    19 1   
    24     9    20 ar  
    25    10    19 1   
    26    10    30 1   
    27    10    31 1   
    28    10    32 1   
    29    11    12 ar  
    30    11    21 ar  
    31    11    33 1   
    32    12    22 1   
    33    14    34 1   
    34    15    16 1   
    35    15    35 1   
    36    15    36 1   
    37    16    37 1   
    38    17    18 ar  
    39    17    20 ar  
    40    18    38 1   
    41    20    40 1   
    42    21    41 1   
    43    22    42 1   
    44    39    43 1   
@<TRIPOS>SUBSTRUCTURE
     1 LJU         1 TEMP              0 ****  ****    0 ROOT
