@<TRIPOS>MOLECULE
LJV
   36    38     1     0     0
SMALL
bcc


@<TRIPOS>ATOM
      1 CL           6.8200     1.2240    -0.2880 cl         1 LJV      -0.097400
      2 C8           5.3270     0.3470    -0.3000 ca         1 LJV      -0.012600
      3 C9           5.2620    -0.8810    -0.9620 ca         1 LJV      -0.062000
      4 C10          4.0830    -1.5920    -0.9770 ca         1 LJV      -0.178000
      5 C11          2.9510    -1.0790    -0.3390 ca         1 LJV       0.107600
      6 N2           1.7640    -1.7610    -0.3440 ns         1 LJV      -0.437100
      7 C12          0.6050    -1.3550     0.2610 c          1 LJV       0.708700
      8 O           -0.3980    -2.0540     0.2440 o          1 LJV      -0.610500
      9 C7           4.2240     0.8660     0.3370 ca         1 LJV      -0.057000
     10 C6           3.0180     0.1560     0.3200 ca         1 LJV      -0.135800
     11 C5           1.8250     0.6480     0.9400 cc         1 LJV      -0.013200
     12 C4           0.6700    -0.0470     0.9120 cd         1 LJV      -0.230400
     13 C3          -0.5960     0.4650     1.5250 c3         1 LJV       0.295000
     14 N1          -1.5390     0.8260     0.4920 nu         1 LJV      -0.875900
     15 C2          -2.8110     0.4160     0.3690 ca         1 LJV       0.734200
     16 N           -3.4230     0.8100    -0.7590 nb         1 LJV      -0.780000
     17 C1          -4.6750     0.4710    -0.9940 ca         1 LJV       0.526600
     18 C           -5.2890     0.9450    -2.2740 c3         1 LJV      -0.155400
     19 C13         -3.4820    -0.3550     1.3430 ca         1 LJV      -0.323300
     20 C14         -4.7820    -0.7060     1.1030 ca         1 LJV      -0.005000
     21 C15         -5.4120    -0.2990    -0.0810 ca         1 LJV      -0.226300
     22 C16         -6.7620    -0.6360    -0.3410 cg         1 LJV       0.257800
     23 N3          -7.8590    -0.9190    -0.5670 n1         1 LJV      -0.389800
     24 H1           6.1380    -1.2790    -1.4560 ha         1 LJV       0.154000
     25 H2           4.0310    -2.5430    -1.4930 ha         1 LJV       0.146000
     26 H3           1.7370    -2.6620    -0.8050 hn         1 LJV       0.333500
     27 H4           4.2740     1.8140     0.8570 ha         1 LJV       0.152000
     28 H5           1.8650     1.6060     1.4480 ha         1 LJV       0.142000
     29 H6          -1.0320    -0.3050     2.1590 h1         1 LJV       0.061700
     30 H7          -0.3820     1.3230     2.1670 h1         1 LJV       0.061700
     31 H8          -1.1930     1.3920    -0.2680 hn         1 LJV       0.446800
     32 H9          -5.7220     0.1190    -2.8390 hc         1 LJV       0.058367
     33 H10         -6.0920     1.6570    -2.0780 hc         1 LJV       0.058367
     34 H11         -4.5430     1.4360    -2.8930 hc         1 LJV       0.058367
     35 H12         -3.0030    -0.6650     2.2600 ha         1 LJV       0.145000
     36 H13         -5.3240    -1.2990     1.8280 ha         1 LJV       0.142000
@<TRIPOS>BOND
     1     1     2 1   
     2     2     3 ar  
     3     2     9 ar  
     4     3     4 ar  
     5     3    24 1   
     6     4     5 ar  
     7     4    25 1   
     8     5     6 1   
     9     5    10 ar  
    10     6     7 1   
    11     6    26 1   
    12     7     8 2   
    13     7    12 1   
    14     9    10 ar  
    15     9    27 1   
    16    10    11 1   
    17    11    12 2   
    18    11    28 1   
    19    12    13 1   
    20    13    14 1   
    21    13    29 1   
    22    13    30 1   
    23    14    15 1   
    24    14    31 1   
    25    15    16 ar  
    26    15    19 ar  
    27    16    17 ar  
    28    17    18 1   
    29    17    21 ar  
    30    18    32 1   
    31    18    33 1   
    32    18    34 1   
    33    19    20 ar  
    34    19    35 1   
    35    20    21 ar  
    36    20    36 1   
    37    21    22 1   
    38    22    23 3   
@<TRIPOS>SUBSTRUCTURE
     1 LJV         1 TEMP              0 ****  ****    0 ROOT
