@<TRIPOS>MOLECULE
LJV
   36    38     1     0     0
SMALL
No Charge or Current Charge


@<TRIPOS>ATOM
      1 Cl           5.7730     2.5640    -1.1020 cl         1 LJV      -0.189000
      2 C8           4.8440     1.1210    -0.7110 ca         1 LJV       0.079000
      3 C9           5.4360    -0.1470    -0.8360 ca         1 LJV      -0.044000
      4 C10          4.6910    -1.2990    -0.5230 ca         1 LJV      -0.160000
      5 C11          3.3620    -1.1730    -0.0880 ca         1 LJV       0.107600
      6 N2           2.5970    -2.2980     0.2310 ns         1 LJV      -0.370100
      7 C12          1.2970    -2.3140     0.6620 c          1 LJV       0.566200
      8 O            0.7380    -3.3690     0.9180 o          1 LJV      -0.535000
      9 C7           3.5130     1.2420    -0.2750 ca         1 LJV      -0.039000
     10 C6           2.7640     0.0900     0.0390 ca         1 LJV      -0.135800
     11 C5           1.3770     0.2060     0.4930 cc         1 LJV      -0.063200
     12 C4           0.6720    -0.9590     0.7800 cd         1 LJV      -0.230400
     13 C3          -0.7570    -0.9410     1.2640 c3         1 LJV       0.295000
     14 N1          -1.5490    -0.1900     0.2910 nu         1 LJV      -0.931100
     15 C2          -2.8850     0.0510     0.3370 ca         1 LJV       0.668900
     16 N           -3.3450     0.3930    -0.8600 nb         1 LJV      -0.780000
     17 C1          -4.6640     0.6710    -0.9640 ca         1 LJV       0.461300
     18 C           -5.1320     1.0540    -2.3610 c3         1 LJV      -0.155400
     19 C13         -3.6640    -0.0330     1.4940 ca         1 LJV      -0.240000
     20 C14         -5.0320     0.2520     1.3990 ca         1 LJV       0.013000
     21 C15         -5.5440     0.6120     0.1400 ca         1 LJV      -0.161000
     22 C16         -6.9380     0.9130    -0.0020 cg         1 LJV       0.347000
     23 N3          -8.0750     1.1560    -0.1060 n1         1 LJV      -0.479000
     24 H1           6.4660    -0.2360    -1.1730 ha         1 LJV       0.136000
     25 H2           5.1480    -2.2820    -0.6180 ha         1 LJV       0.128000
     26 H3           3.0430    -3.2010     0.1420 hn         1 LJV       0.333500
     27 H4           3.0660     2.2290    -0.1830 ha         1 LJV       0.134000
     28 H5           0.8970     1.1760     0.6060 ha         1 LJV       0.192000
     29 H6          -1.1650    -1.9540     1.3770 h1         1 LJV       0.061700
     30 H7          -0.7940    -0.4540     2.2490 h1         1 LJV       0.061700
     31 H8          -1.2010    -0.1420    -0.6600 hn         1 LJV       0.502000
     32 H9          -5.8950     0.3550    -2.7220 hc         1 LJV       0.058367
     33 H10         -5.5640     2.0610    -2.3660 hc         1 LJV       0.058367
     34 H11         -4.3100     1.0450    -3.0860 hc         1 LJV       0.058367
     35 H12         -3.2220    -0.3110     2.4450 ha         1 LJV       0.127000
     36 H13         -5.6740     0.1960     2.2770 ha         1 LJV       0.124000
@<TRIPOS>BOND
     1     1     2 1   
     2     2     3 ar  
     3     2     9 ar  
     4     3     4 ar  
     5     3    24 1   
     6     4     5 ar  
     7     4    25 1   
     8     5     6 1   
     9     5    10 ar  
    10     6     7 1   
    11     6    26 1   
    12     7     8 2   
    13     7    12 1   
    14     9    10 ar  
    15     9    27 1   
    16    10    11 1   
    17    11    12 2   
    18    11    28 1   
    19    12    13 1   
    20    13    14 1   
    21    13    29 1   
    22    13    30 1   
    23    14    15 1   
    24    14    31 1   
    25    15    16 ar  
    26    15    19 ar  
    27    16    17 ar  
    28    17    18 1   
    29    17    21 ar  
    30    18    32 1   
    31    18    33 1   
    32    18    34 1   
    33    19    20 ar  
    34    19    35 1   
    35    20    21 ar  
    36    20    36 1   
    37    21    22 1   
    38    22    23 3   
@<TRIPOS>SUBSTRUCTURE
     1 LJV         1 TEMP              0 ****  ****    0 ROOT
