@<TRIPOS>MOLECULE
LJY
   38    40     1     0     0
SMALL
bcc


@<TRIPOS>ATOM
      1 C1           4.9820    -1.5530    -2.7550 c3         1 LJY       0.124700
      2 C2           4.7640    -0.4850    -0.6470 ca         1 LJY       0.232100
      3 C3           5.4190     0.0920     0.4610 ca         1 LJY      -0.131000
      4 C4           4.6530     0.6120     1.5050 ca         1 LJY      -0.003000
      5 C5           3.2780     0.5770     1.4760 ca         1 LJY      -0.260000
      6 C6           2.6170     0.0100     0.3680 ca         1 LJY       0.271600
      7 C15         -5.5900    -0.6940    -0.0450 ca         1 LJY      -0.013600
      8 C14         -5.7750     0.4110    -0.8780 ca         1 LJY      -0.062000
      9 C13         -4.7340     1.2860    -1.1020 ca         1 LJY      -0.179000
     10 C16         -4.3780    -0.9290     0.5600 ca         1 LJY      -0.057000
     11 C10         -3.3130    -0.0480     0.3380 ca         1 LJY      -0.137800
     12 C11         -3.4950     1.0620    -0.4960 ca         1 LJY       0.108600
     13 N2          -2.4430     1.9140    -0.6990 ns         1 LJY      -0.440100
     14 C12         -1.1910     1.7880    -0.1570 c          1 LJY       0.706700
     15 O2          -0.3180     2.6110    -0.3900 o          1 LJY      -0.603500
     16 C9          -2.0220    -0.2360     0.9290 cc         1 LJY      -0.014200
     17 C8          -1.0040     0.6210     0.7060 cd         1 LJY      -0.222400
     18 C7           0.3550     0.4180     1.2980 c3         1 LJY       0.287000
     19 N1           1.2710    -0.0330     0.2760 nu         1 LJY      -0.771600
     20 C17          3.3850    -0.5250    -0.6860 ca         1 LJY      -0.325000
     21 O1           5.5640    -0.9610    -1.6050 os         1 LJY      -0.304900
     22 C18          6.8330     0.1330     0.5020 cg         1 LJY       0.265800
     23 N3           7.9860     0.1740     0.5490 n1         1 LJY      -0.393800
     24 H1           5.8080    -1.8540    -3.3930 h1         1 LJY       0.044033
     25 H2           4.3920    -2.4350    -2.4990 h1         1 LJY       0.044033
     26 H3           4.3520    -0.8450    -3.2970 h1         1 LJY       0.044033
     27 H4           5.1530     1.0470     2.3600 ha         1 LJY       0.139000
     28 H5           2.7260     0.9790     2.3120 ha         1 LJY       0.137000
     29 H6          -6.7330     0.5840    -1.3500 ha         1 LJY       0.154000
     30 H7          -4.8800     2.1420    -1.7490 ha         1 LJY       0.147000
     31 H8          -4.2350    -1.7850     1.2060 ha         1 LJY       0.153000
     32 H9          -2.5910     2.7160    -1.2980 hn         1 LJY       0.332500
     33 H10         -1.8710    -1.0950     1.5730 ha         1 LJY       0.143000
     34 H11          0.7110     1.3630     1.7130 h1         1 LJY       0.057200
     35 H12          0.2940    -0.2950     2.1270 h1         1 LJY       0.057200
     36 H13          0.8780    -0.5830    -0.4710 hn         1 LJY       0.431800
     37 H14          2.8670    -0.9600    -1.5300 ha         1 LJY       0.134000
     38 CL          -6.9120    -1.7800     0.2250 cl         1 LJY      -0.096400
@<TRIPOS>BOND
     1     1    21 1   
     2     1    24 1   
     3     1    25 1   
     4     1    26 1   
     5     2     3 ar  
     6     2    20 ar  
     7     2    21 1   
     8     3     4 ar  
     9     3    22 1   
    10     4     5 ar  
    11     4    27 1   
    12     5     6 ar  
    13     5    28 1   
    14     6    19 1   
    15     6    20 ar  
    16     7     8 ar  
    17     7    10 ar  
    18     7    38 1   
    19     8     9 ar  
    20     8    29 1   
    21     9    12 ar  
    22     9    30 1   
    23    10    11 ar  
    24    10    31 1   
    25    11    12 ar  
    26    11    16 1   
    27    12    13 1   
    28    13    14 1   
    29    13    32 1   
    30    14    15 2   
    31    14    17 1   
    32    16    17 2   
    33    16    33 1   
    34    17    18 1   
    35    18    19 1   
    36    18    34 1   
    37    18    35 1   
    38    19    36 1   
    39    20    37 1   
    40    22    23 3   
@<TRIPOS>SUBSTRUCTURE
     1 LJY         1 TEMP              0 ****  ****    0 ROOT
