@<TRIPOS>MOLECULE
LJY
   38    40     1     0     0
SMALL
No Charge or Current Charge


@<TRIPOS>ATOM
      1 C1           4.7300    -1.8280    -2.7570 c3         1 LJY       0.147900
      2 C2           4.6860    -0.7430    -0.5330 ca         1 LJY       0.232100
      3 C3           5.3970    -0.3300     0.6120 ca         1 LJY      -0.131000
      4 C4           4.7210     0.3120     1.6650 ca         1 LJY       0.015000
      5 C5           3.3390     0.5400     1.5730 ca         1 LJY      -0.242000
      6 C6           2.6310     0.1320     0.4350 ca         1 LJY       0.410000
      7 C15         -5.1220    -1.2320    -0.3820 ca         1 LJY       0.078000
      8 C14         -5.7070    -0.0410    -0.8460 ca         1 LJY      -0.044000
      9 C13         -4.9650     1.1540    -0.8310 ca         1 LJY      -0.161000
     10 C16         -3.8000    -1.2320     0.0950 ca         1 LJY      -0.039000
     11 C10         -3.0530    -0.0370     0.1110 ca         1 LJY      -0.137800
     12 C11         -3.6440     1.1480    -0.3540 ca         1 LJY       0.108600
     13 N2          -2.8820     2.3190    -0.3250 ns         1 LJY      -0.373100
     14 C12         -1.5900     2.4490     0.1110 c          1 LJY       0.564200
     15 O2          -1.0320     3.5360     0.0930 o          1 LJY      -0.528000
     16 C9          -1.6760    -0.0270     0.6060 cc         1 LJY      -0.064200
     17 C8          -0.9730     1.1740     0.5920 cd         1 LJY      -0.222400
     18 C7           0.4460     1.2810     1.0920 c3         1 LJY       0.287000
     19 N1           1.2660     0.3420     0.3170 nu         1 LJY      -0.965200
     20 C17          3.2970    -0.5080    -0.6120 ca         1 LJY      -0.307000
     21 O1           5.3740    -1.3740    -1.5540 os         1 LJY      -0.328100
     22 C18          6.8100    -0.5570     0.7200 cg         1 LJY       0.355000
     23 N3           7.9600    -0.7340     0.8230 n1         1 LJY      -0.483000
     24 H1           5.4620    -2.2970    -3.4260 h1         1 LJY       0.044033
     25 H2           3.9550    -2.5720    -2.5280 h1         1 LJY       0.044033
     26 H3           4.2680    -0.9900    -3.2930 h1         1 LJY       0.044033
     27 H4           5.2620     0.6330     2.5530 ha         1 LJY       0.121000
     28 H5           2.8290     1.0330     2.3950 ha         1 LJY       0.119000
     29 H6          -6.7300    -0.0450    -1.2140 ha         1 LJY       0.136000
     30 H7          -5.4160     2.0770    -1.1890 ha         1 LJY       0.129000
     31 H8          -3.3580    -2.1600     0.4510 ha         1 LJY       0.135000
     32 H9          -3.3240     3.1660    -0.6560 hn         1 LJY       0.332500
     33 H10         -1.2000    -0.9320     0.9790 ha         1 LJY       0.193000
     34 H11          0.8430     2.3010     0.9870 h1         1 LJY       0.057200
     35 H12          0.4680     1.0210     2.1590 h1         1 LJY       0.057200
     36 H13          0.8550     0.0060    -0.5520 hn         1 LJY       0.487000
     37 H14          2.7250    -0.8160    -1.4800 ha         1 LJY       0.116000
     38 Cl          -6.0490    -2.7270    -0.4000 cl         1 LJY      -0.188000
@<TRIPOS>BOND
     1     1    21 1   
     2     1    24 1   
     3     1    25 1   
     4     1    26 1   
     5     2     3 ar  
     6     2    20 ar  
     7     2    21 1   
     8     3     4 ar  
     9     3    22 1   
    10     4     5 ar  
    11     4    27 1   
    12     5     6 ar  
    13     5    28 1   
    14     6    19 1   
    15     6    20 ar  
    16     7     8 ar  
    17     7    10 ar  
    18     7    38 1   
    19     8     9 ar  
    20     8    29 1   
    21     9    12 ar  
    22     9    30 1   
    23    10    11 ar  
    24    10    31 1   
    25    11    12 ar  
    26    11    16 1   
    27    12    13 1   
    28    13    14 1   
    29    13    32 1   
    30    14    15 2   
    31    14    17 1   
    32    16    17 2   
    33    16    33 1   
    34    17    18 1   
    35    18    19 1   
    36    18    34 1   
    37    18    35 1   
    38    19    36 1   
    39    20    37 1   
    40    22    23 3   
@<TRIPOS>SUBSTRUCTURE
     1 LJY         1 TEMP              0 ****  ****    0 ROOT
