@<TRIPOS>MOLECULE
LK0
  104   106     1     0     0
SMALL
No Charge or Current Charge


@<TRIPOS>ATOM
      1 C24         -7.5480     0.3670    -1.3450 c          1 LK0       0.639100
      2 O31         -7.6610    -0.8480    -1.3910 o          1 LK0      -0.551000
      3 O25         -8.5720     1.2630    -1.3470 os         1 LK0      -0.451100
      4 C26         -9.9130     0.7450    -1.4010 c3         1 LK0       0.169900
      5 N23         -6.3680     1.0480    -1.2600 ns         1 LK0      -0.482900
      6 C22         -5.0270     0.4270    -1.1550 c3         1 LK0       0.049700
      7 C28         -4.2670     0.4090    -2.5360 c3         1 LK0      -0.044000
      8 C29         -2.9310    -0.3780    -2.4160 c3         1 LK0      -0.087100
      9 C30         -5.1320    -0.3000    -3.6160 c3         1 LK0      -0.087100
     10 C50         -3.9540     1.8520    -3.0210 c3         1 LK0      -0.087100
     11 C21         -4.2520     1.1400    -0.0060 c          1 LK0       0.585100
     12 O27         -4.4450     2.3060     0.3120 o          1 LK0      -0.587100
     13 N1           1.3710     0.2050     0.3800 ns         1 LK0      -0.494900
     14 C4          -1.2650     0.4520     2.0310 c3         1 LK0      -0.120400
     15 C5           1.9810     2.5030     1.0570 c3         1 LK0      -0.049100
     16 C7          -2.8020     0.6510     2.0000 c3         1 LK0       0.105700
     17 C8          -3.5370    -0.2220     3.0480 c3         1 LK0      -0.054100
     18 C10         -5.7780    -1.1730     2.2920 ca         1 LK0      -0.103000
     19 C13         -7.1340     1.1150     3.1960 ca         1 LK0      -0.105500
     20 C15          3.4410     2.1190     0.8220 ca         1 LK0      -0.082300
     21 C17          5.5950     1.3680     1.6860 ca         1 LK0      -0.094500
     22 C20          3.9400     1.9930    -0.4880 ca         1 LK0      -0.102500
     23 C2           1.0890     1.2680     1.3570 c3         1 LK0       0.073700
     24 C3          -0.4320     1.6010     1.4000 c3         1 LK0       0.170300
     25 N6          -3.3410     0.3500     0.6670 ns         1 LK0      -0.493900
     26 C9          -5.0560    -0.1350     2.9160 ca         1 LK0      -0.090300
     27 C11         -7.1680    -1.0650     2.1170 ca         1 LK0      -0.105500
     28 C12         -7.8470     0.0800     2.5680 ca         1 LK0      -0.109000
     29 C14         -5.7430     1.0080     3.3680 ca         1 LK0      -0.103000
     30 C16          4.2800     1.8110     1.9080 ca         1 LK0      -0.102500
     31 C18          6.1080     1.2210     0.3720 cp         1 LK0      -0.037000
     32 C19          5.2540     1.5490    -0.7090 ca         1 LK0      -0.094500
     33 C44          7.5000     0.7220     0.1350 cp         1 LK0      -0.084000
     34 C45          8.1100    -0.2210     1.0070 ca         1 LK0       0.350900
     35 N46          9.3630    -0.7110     0.8410 nb         1 LK0      -0.667000
     36 C47         10.0740    -0.2720    -0.2210 ca         1 LK0       0.330900
     37 C48          9.5680     0.6560    -1.1440 ca         1 LK0      -0.168000
     38 C49          8.2700     1.1610    -0.9700 ca         1 LK0      -0.069000
     39 O51         -0.9070     1.8660     0.0740 oh         1 LK0      -0.651000
     40 N34          3.9650    -2.1940    -0.4960 ns         1 LK0      -0.488900
     41 C33          2.5920    -1.6700    -0.6830 c3         1 LK0       0.054700
     42 C38          1.5690    -2.7990    -1.0840 c3         1 LK0      -0.047000
     43 C39          1.4500    -3.8720     0.0350 c3         1 LK0      -0.087433
     44 C40          0.1610    -2.1930    -1.3440 c3         1 LK0      -0.087433
     45 C43          2.0330    -3.4950    -2.3940 c3         1 LK0      -0.087433
     46 C32          2.1960    -0.8780     0.6000 c          1 LK0       0.586100
     47 O37          2.6210    -1.1560     1.7160 o          1 LK0      -0.602100
     48 O41          4.8870    -1.5760    -2.5080 o          1 LK0      -0.553000
     49 O36          6.1130    -2.6010    -0.8530 os         1 LK0      -0.448100
     50 C42          7.3130    -2.5680    -1.6460 c3         1 LK0       0.167900
     51 H26        -10.6400     1.5670    -1.3970 h1         1 LK0       0.046700
     52 H26A       -10.0690     0.1570    -2.3150 h1         1 LK0       0.046700
     53 H26B       -10.1190     0.1040    -0.5340 h1         1 LK0       0.046700
     54 HN23        -6.4460     2.0540    -1.1850 hn         1 LK0       0.346500
     55 H22         -5.1650    -0.6120    -0.8290 h1         1 LK0       0.080700
     56 H29         -3.1010    -1.3840    -2.0140 hc         1 LK0       0.039256
     57 H29A        -2.4510    -0.4870    -3.3960 hc         1 LK0       0.039256
     58 H29B        -2.2150     0.1360    -1.7660 hc         1 LK0       0.039256
     59 H30         -6.0540     0.2570    -3.8240 hc         1 LK0       0.039256
     60 H30A        -4.5860    -0.3880    -4.5630 hc         1 LK0       0.039256
     61 H30B        -5.4100    -1.3110    -3.2940 hc         1 LK0       0.039256
     62 H50         -3.2980     2.3780    -2.3180 hc         1 LK0       0.039256
     63 H50A        -3.4470     1.8350    -3.9940 hc         1 LK0       0.039256
     64 H50B        -4.8720     2.4420    -3.1360 hc         1 LK0       0.039256
     65 HN1          1.0370     0.3480    -0.5650 hn         1 LK0       0.313500
     66 H4          -0.9460     0.3550     3.0760 hc         1 LK0       0.058200
     67 H4A         -1.0180    -0.5030     1.5510 hc         1 LK0       0.058200
     68 H5           1.9050     3.2130     1.8900 hc         1 LK0       0.062700
     69 H5A          1.5900     3.0270     0.1770 hc         1 LK0       0.062700
     70 H7          -3.0150     1.7010     2.2510 h1         1 LK0       0.095700
     71 H8          -3.2080    -1.2630     2.9400 hc         1 LK0       0.053200
     72 H8A         -3.2310     0.0910     4.0540 hc         1 LK0       0.053200
     73 H10         -5.2610    -2.0580     1.9280 ha         1 LK0       0.110000
     74 H13         -7.6580     2.0020     3.5440 ha         1 LK0       0.117500
     75 H17          6.2200     1.1380     2.5450 ha         1 LK0       0.119500
     76 H20          3.3000     2.2130    -1.3400 ha         1 LK0       0.114500
     77 H2           1.3710     0.9050     2.3550 h1         1 LK0       0.086700
     78 H3          -0.5700     2.4930     2.0290 h1         1 LK0       0.074700
     79 HN6         -3.2480    -0.6040     0.3360 hn         1 LK0       0.303500
     80 H11         -7.7180    -1.8650     1.6270 ha         1 LK0       0.117500
     81 H12         -8.9220     0.1650     2.4300 ha         1 LK0       0.112000
     82 H14         -5.1960     1.8200     3.8430 ha         1 LK0       0.110000
     83 H16          3.9060     1.8940     2.9260 ha         1 LK0       0.114500
     84 H19          5.6010     1.4330    -1.7320 ha         1 LK0       0.119500
     85 H45          7.5650    -0.6100     1.8660 h4         1 LK0       0.025100
     86 H47         11.0790    -0.6770    -0.3340 h4         1 LK0       0.019100
     87 H48         10.1810     0.9780    -1.9810 ha         1 LK0       0.124000
     88 H49          7.8740     1.8910    -1.6730 ha         1 LK0       0.123000
     89 HO51        -1.8670     1.6640     0.0890 ho         1 LK0       0.446000
     90 HN34         4.2130    -2.5960     0.3990 hn         1 LK0       0.344500
     91 H33          2.6210    -0.9330    -1.4960 h1         1 LK0       0.082700
     92 H39          1.0840    -3.4330     0.9710 hc         1 LK0       0.039144
     93 H39A         0.7470    -4.6620    -0.2580 hc         1 LK0       0.039144
     94 H39B         2.4170    -4.3470     0.2370 hc         1 LK0       0.039144
     95 H40          0.2100    -1.3850    -2.0850 hc         1 LK0       0.039144
     96 H40A        -0.5300    -2.9550    -1.7260 hc         1 LK0       0.039144
     97 H40B        -0.2820    -1.7910    -0.4250 hc         1 LK0       0.039144
     98 H43          2.9850    -4.0210    -2.2550 hc         1 LK0       0.039144
     99 H43A         1.2970    -4.2360    -2.7280 hc         1 LK0       0.039144
    100 H43B         2.1640    -2.7640    -3.2010 hc         1 LK0       0.039144
    101 H42          7.1870    -3.1480    -2.5700 h1         1 LK0       0.048700
    102 H42A         7.5740    -1.5370    -1.9170 h1         1 LK0       0.048700
    103 H42B         8.1530    -2.9960    -1.0860 h1         1 LK0       0.048700
    104 C35          4.9800    -2.0810    -1.4000 c          1 LK0       0.639100
@<TRIPOS>BOND
     1     1     2 2   
     2     1     3 1   
     3     1     5 1   
     4     3     4 1   
     5     4    51 1   
     6     4    52 1   
     7     4    53 1   
     8     5     6 1   
     9     5    54 1   
    10     6     7 1   
    11     6    11 1   
    12     6    55 1   
    13     7     8 1   
    14     7     9 1   
    15     7    10 1   
    16     8    56 1   
    17     8    57 1   
    18     8    58 1   
    19     9    59 1   
    20     9    60 1   
    21     9    61 1   
    22    10    62 1   
    23    10    63 1   
    24    10    64 1   
    25    11    12 2   
    26    11    25 1   
    27    13    23 1   
    28    13    46 1   
    29    13    65 1   
    30    14    16 1   
    31    14    24 1   
    32    14    66 1   
    33    14    67 1   
    34    15    20 1   
    35    15    23 1   
    36    15    68 1   
    37    15    69 1   
    38    16    17 1   
    39    16    25 1   
    40    16    70 1   
    41    17    26 1   
    42    17    71 1   
    43    17    72 1   
    44    18    26 ar  
    45    18    27 ar  
    46    18    73 1   
    47    19    28 ar  
    48    19    29 ar  
    49    19    74 1   
    50    20    22 ar  
    51    20    30 ar  
    52    21    30 ar  
    53    21    31 ar  
    54    21    75 1   
    55    22    32 ar  
    56    22    76 1   
    57    23    24 1   
    58    23    77 1   
    59    24    39 1   
    60    24    78 1   
    61    25    79 1   
    62    26    29 ar  
    63    27    28 ar  
    64    27    80 1   
    65    28    81 1   
    66    29    82 1   
    67    30    83 1   
    68    31    32 ar  
    69    31    33 1   
    70    32    84 1   
    71    33    34 ar  
    72    33    38 ar  
    73    34    35 ar  
    74    34    85 1   
    75    35    36 ar  
    76    36    37 ar  
    77    36    86 1   
    78    37    38 ar  
    79    37    87 1   
    80    38    88 1   
    81    39    89 1   
    82    40    41 1   
    83    40    90 1   
    84    40   104 1   
    85    41    42 1   
    86    41    46 1   
    87    41    91 1   
    88    42    43 1   
    89    42    44 1   
    90    42    45 1   
    91    43    92 1   
    92    43    93 1   
    93    43    94 1   
    94    44    95 1   
    95    44    96 1   
    96    44    97 1   
    97    45    98 1   
    98    45    99 1   
    99    45   100 1   
   100    46    47 2   
   101    48   104 2   
   102    49    50 1   
   103    49   104 1   
   104    50   101 1   
   105    50   102 1   
   106    50   103 1   
@<TRIPOS>SUBSTRUCTURE
     1 LK0         1 TEMP              0 ****  ****    0 ROOT
