@<TRIPOS>MOLECULE
LK0
  104   106     1     0     0
SMALL
abcg2


@<TRIPOS>ATOM
      1 C24         -7.3070     0.0250    -1.1850 c          1 LK0       0.639100
      2 O31         -7.2860    -1.1860    -1.2480 o          1 LK0      -0.551000
      3 O25         -8.4230     0.7420    -1.0180 os         1 LK0      -0.451100
      4 C26         -9.6360     0.0140    -0.8720 c3         1 LK0       0.169900
      5 N23         -6.2370     0.8380    -1.2980 ns         1 LK0      -0.482900
      6 C22         -4.8810     0.3460    -1.2770 c3         1 LK0       0.049700
      7 C28         -4.1700     0.4750    -2.6530 c3         1 LK0      -0.044000
      8 C29         -2.8280    -0.2580    -2.6030 c3         1 LK0      -0.087100
      9 C30         -5.0430    -0.2090    -3.7080 c3         1 LK0      -0.087100
     10 C50         -3.9490     1.9350    -3.0460 c3         1 LK0      -0.087100
     11 C21         -4.1660     1.0860    -0.1430 c          1 LK0       0.585100
     12 O27         -4.4120     2.2570     0.0920 o          1 LK0      -0.587100
     13 N1           1.3200     0.2650     0.2250 ns         1 LK0      -0.494900
     14 C4          -1.2180     0.5370     1.8960 c3         1 LK0      -0.120400
     15 C5           2.0080     2.4870     0.9690 c3         1 LK0      -0.049100
     16 C7          -2.7280     0.7640     1.8380 c3         1 LK0       0.105700
     17 C8          -3.4460    -0.0050     2.9600 c3         1 LK0      -0.054100
     18 C10         -5.7030    -0.8940     2.2830 ca         1 LK0      -0.103000
     19 C13         -6.9600     1.4170     3.1410 ca         1 LK0      -0.105500
     20 C15          3.4390     2.0570     0.8230 ca         1 LK0      -0.082300
     21 C17          5.4660     1.1670     1.7960 ca         1 LK0      -0.094500
     22 C20          4.0350     1.9590    -0.4300 ca         1 LK0      -0.102500
     23 C2           1.0970     1.2780     1.2350 c3         1 LK0       0.073700
     24 C3          -0.3860     1.6660     1.2940 c3         1 LK0       0.170300
     25 N6          -3.2680     0.3590     0.5500 ns         1 LK0      -0.493900
     26 C9          -4.9400     0.1160     2.8630 ca         1 LK0      -0.090300
     27 C11         -7.0770    -0.7550     2.1310 ca         1 LK0      -0.105500
     28 C12         -7.7090     0.4040     2.5550 ca         1 LK0      -0.109000
     29 C14         -5.5880     1.2730     3.2920 ca         1 LK0      -0.103000
     30 C16          4.1790     1.6590     1.9340 ca         1 LK0      -0.102500
     31 C18          6.0580     1.0610     0.5370 cp         1 LK0      -0.037000
     32 C19          5.3250     1.4720    -0.5740 ca         1 LK0      -0.094500
     33 C44          7.4230     0.5300     0.3850 cp         1 LK0      -0.084000
     34 C45          7.8430    -0.5870     1.1080 ca         1 LK0       0.350900
     35 N46          9.0530    -1.1190     1.0160 nb         1 LK0      -0.667000
     36 C47          9.9210    -0.5580     0.1800 ca         1 LK0       0.330900
     37 C48          9.6120     0.5490    -0.5950 ca         1 LK0      -0.168000
     38 C49          8.3460     1.1010    -0.4880 ca         1 LK0      -0.069000
     39 O51         -0.8480     2.1030     0.0340 oh         1 LK0      -0.651000
     40 N34          3.7280    -2.0880    -0.6530 ns         1 LK0      -0.488900
     41 C33          2.3510    -1.6830    -0.7960 c3         1 LK0       0.054700
     42 C38          1.3920    -2.8740    -1.0650 c3         1 LK0      -0.047000
     43 C39          1.4500    -3.9320     0.0370 c3         1 LK0      -0.087433
     44 C40         -0.0390    -2.3500    -1.1940 c3         1 LK0      -0.087433
     45 C43          1.8000    -3.5170    -2.3930 c3         1 LK0      -0.087433
     46 C32          1.9840    -0.8840     0.4520 c          1 LK0       0.586100
     47 O37          2.2880    -1.2820     1.5650 o          1 LK0      -0.602100
     48 O41          4.4930    -1.2610    -2.6350 o          1 LK0      -0.553000
     49 O36          5.8800    -2.1860    -1.1240 os         1 LK0      -0.448100
     50 C42          6.9770    -1.9920    -2.0060 c3         1 LK0       0.167900
     51 H26        -10.4200     0.7590    -0.7690 h1         1 LK0       0.046700
     52 H26A        -9.8450    -0.6070    -1.7420 h1         1 LK0       0.046700
     53 H26B        -9.6240    -0.6140     0.0200 h1         1 LK0       0.046700
     54 HN23        -6.3660     1.8200    -1.1100 hn         1 LK0       0.346500
     55 H22         -4.9220    -0.7210    -1.0400 h1         1 LK0       0.080700
     56 H29         -2.9490    -1.2930    -2.2740 hc         1 LK0       0.039256
     57 H29A        -2.3700    -0.2790    -3.5920 hc         1 LK0       0.039256
     58 H29B        -2.1110     0.2200    -1.9340 hc         1 LK0       0.039256
     59 H30         -5.9780     0.3240    -3.8750 hc         1 LK0       0.039256
     60 H30A        -4.5110    -0.2440    -4.6610 hc         1 LK0       0.039256
     61 H30B        -5.2840    -1.2360    -3.4250 hc         1 LK0       0.039256
     62 H50         -3.2280     2.4320    -2.3960 hc         1 LK0       0.039256
     63 H50A        -3.5620     1.9910    -4.0650 hc         1 LK0       0.039256
     64 H50B        -4.8770     2.5090    -3.0190 hc         1 LK0       0.039256
     65 HN1          1.2280     0.5600    -0.7350 hn         1 LK0       0.313500
     66 H4          -0.9110     0.4330     2.9400 hc         1 LK0       0.058200
     67 H4A         -0.9770    -0.4200     1.4190 hc         1 LK0       0.058200
     68 H5           1.8950     3.1900     1.7980 hc         1 LK0       0.062700
     69 H5A          1.6730     3.0010     0.0640 hc         1 LK0       0.062700
     70 H7          -2.9460     1.8260     1.9560 h1         1 LK0       0.095700
     71 H8          -3.1500    -1.0580     2.9180 hc         1 LK0       0.053200
     72 H8A         -3.0910     0.3850     3.9160 hc         1 LK0       0.053200
     73 H10         -5.2170    -1.8020     1.9460 ha         1 LK0       0.110000
     74 H13         -7.4450     2.3230     3.4830 ha         1 LK0       0.117500
     75 H17          6.0210     0.8800     2.6810 ha         1 LK0       0.119500
     76 H20          3.4830     2.2600    -1.3130 ha         1 LK0       0.114500
     77 H2           1.3710     0.8440     2.1980 h1         1 LK0       0.086700
     78 H3          -0.4680     2.5340     1.9570 h1         1 LK0       0.074700
     79 HN6         -3.2370    -0.6310     0.3580 hn         1 LK0       0.303500
     80 H11         -7.6470    -1.5540     1.6770 ha         1 LK0       0.117500
     81 H12         -8.7790     0.5170     2.4380 ha         1 LK0       0.112000
     82 H14         -5.0140     2.0720     3.7470 ha         1 LK0       0.110000
     83 H16          3.7450     1.7340     2.9240 ha         1 LK0       0.114500
     84 H19          5.7520     1.3870    -1.5660 ha         1 LK0       0.119500
     85 H45          7.1510    -1.0830     1.7810 h4         1 LK0       0.025100
     86 H47         10.9050    -1.0090     0.1250 h4         1 LK0       0.019100
     87 H48         10.3500     0.9740    -1.2610 ha         1 LK0       0.124000
     88 H49          8.0840     1.9780    -1.0670 ha         1 LK0       0.123000
     89 HO51        -1.1160     1.3390    -0.4840 ho         1 LK0       0.446000
     90 HN34         4.0180    -2.4420     0.2460 hn         1 LK0       0.344500
     91 H33          2.2950    -1.0330    -1.6720 h1         1 LK0       0.082700
     92 H39          1.0860    -3.5610     0.9930 hc         1 LK0       0.039144
     93 H39A         0.8270    -4.7830    -0.2450 hc         1 LK0       0.039144
     94 H39B         2.4630    -4.3110     0.1830 hc         1 LK0       0.039144
     95 H40         -0.1110    -1.5460    -1.9310 hc         1 LK0       0.039144
     96 H40A        -0.7040    -3.1520    -1.5190 hc         1 LK0       0.039144
     97 H40B        -0.4320    -1.9720    -0.2480 hc         1 LK0       0.039144
     98 H43          2.8070    -3.9330    -2.3490 hc         1 LK0       0.039144
     99 H43A         1.1190    -4.3350    -2.6360 hc         1 LK0       0.039144
    100 H43B         1.7660    -2.8000    -3.2150 hc         1 LK0       0.039144
    101 H42          6.8420    -2.5350    -2.9430 h1         1 LK0       0.048700
    102 H42A         7.1440    -0.9380    -2.2230 h1         1 LK0       0.048700
    103 H42B         7.8480    -2.3870    -1.4890 h1         1 LK0       0.048700
    104 C35          4.6800    -1.7910    -1.5590 c          1 LK0       0.639100
@<TRIPOS>BOND
     1     1     2 2   
     2     1     3 1   
     3     1     5 1   
     4     3     4 1   
     5     4    51 1   
     6     4    52 1   
     7     4    53 1   
     8     5     6 1   
     9     5    54 1   
    10     6     7 1   
    11     6    11 1   
    12     6    55 1   
    13     7     8 1   
    14     7     9 1   
    15     7    10 1   
    16     8    56 1   
    17     8    57 1   
    18     8    58 1   
    19     9    59 1   
    20     9    60 1   
    21     9    61 1   
    22    10    62 1   
    23    10    63 1   
    24    10    64 1   
    25    11    12 2   
    26    11    25 1   
    27    13    23 1   
    28    13    46 1   
    29    13    65 1   
    30    14    16 1   
    31    14    24 1   
    32    14    66 1   
    33    14    67 1   
    34    15    20 1   
    35    15    23 1   
    36    15    68 1   
    37    15    69 1   
    38    16    17 1   
    39    16    25 1   
    40    16    70 1   
    41    17    26 1   
    42    17    71 1   
    43    17    72 1   
    44    18    26 ar  
    45    18    27 ar  
    46    18    73 1   
    47    19    28 ar  
    48    19    29 ar  
    49    19    74 1   
    50    20    22 ar  
    51    20    30 ar  
    52    21    30 ar  
    53    21    31 ar  
    54    21    75 1   
    55    22    32 ar  
    56    22    76 1   
    57    23    24 1   
    58    23    77 1   
    59    24    39 1   
    60    24    78 1   
    61    25    79 1   
    62    26    29 ar  
    63    27    28 ar  
    64    27    80 1   
    65    28    81 1   
    66    29    82 1   
    67    30    83 1   
    68    31    32 ar  
    69    31    33 1   
    70    32    84 1   
    71    33    34 ar  
    72    33    38 ar  
    73    34    35 ar  
    74    34    85 1   
    75    35    36 ar  
    76    36    37 ar  
    77    36    86 1   
    78    37    38 ar  
    79    37    87 1   
    80    38    88 1   
    81    39    89 1   
    82    40    41 1   
    83    40    90 1   
    84    40   104 1   
    85    41    42 1   
    86    41    46 1   
    87    41    91 1   
    88    42    43 1   
    89    42    44 1   
    90    42    45 1   
    91    43    92 1   
    92    43    93 1   
    93    43    94 1   
    94    44    95 1   
    95    44    96 1   
    96    44    97 1   
    97    45    98 1   
    98    45    99 1   
    99    45   100 1   
   100    46    47 2   
   101    48   104 2   
   102    49    50 1   
   103    49   104 1   
   104    50   101 1   
   105    50   102 1   
   106    50   103 1   
@<TRIPOS>SUBSTRUCTURE
     1 LK0         1 TEMP              0 ****  ****    0 ROOT
