@<TRIPOS>MOLECULE
LK1
   49    50     1     0     0
SMALL
bcc


@<TRIPOS>ATOM
      1 O28          0.2230     4.4520     1.1880 o          1 LK1      -0.660300
      2 S11          1.2570     5.3900     0.7590 sy         1 LK1       1.265200
      3 O27          0.8200     6.6390     0.1410 o          1 LK1      -0.660300
      4 N            2.2990     4.5240    -0.1740 n7         1 LK1      -0.765100
      5 CA           3.3390     5.2790    -0.8820 c3         1 LK1       0.048500
      6 C            2.8510     5.7220    -2.2780 c          1 LK1       0.916600
      7 OXT          3.4960     6.6390    -2.8190 o          1 LK1      -0.843800
      8 O            1.8890     5.0910    -2.7610 o          1 LK1      -0.843800
      9 CB           4.5880     4.4040    -1.0110 c3         1 LK1      -0.020400
     10 CG           5.2230     4.0200     0.3170 c3         1 LK1      -0.201400
     11 CD           5.9380     5.1480     1.0870 c          1 LK1       0.919600
     12 OE2          6.4070     4.8300     2.1990 o          1 LK1      -0.859300
     13 OE1          6.0310     6.2650     0.5380 o          1 LK1      -0.859300
     14 C12          2.2870     5.7950     2.1320 ca         1 LK1      -0.243500
     15 C17          2.8010     4.7410     2.9220 ca         1 LK1      -0.017000
     16 C16          3.6140     5.0270     3.9740 ca         1 LK1      -0.117000
     17 C15          3.9290     6.3690     4.3090 ca         1 LK1       0.058000
     18 C21          4.7540     6.6840     5.4000 ca         1 LK1      -0.150000
     19 C20          5.0380     7.9960     5.7150 ca         1 LK1       0.127100
     20 C19          4.4910     9.0410     4.9330 ca         1 LK1      -0.228000
     21 C18          3.6910     8.7480     3.8630 ca         1 LK1      -0.056000
     22 C14          3.3870     7.4150     3.5190 ca         1 LK1      -0.076000
     23 C13          2.5640     7.1010     2.4160 ca         1 LK1       0.012000
     24 O22          5.8370     8.2070     6.7740 os         1 LK1      -0.337900
     25 C23          6.1590     9.5360     7.1620 c3         1 LK1       0.150400
     26 C24          7.1140     9.4680     8.3350 c3         1 LK1      -0.083400
     27 C25          7.4940    10.8600     8.8290 c3         1 LK1      -0.075400
     28 C26          8.4900    10.8160     9.9790 c3         1 LK1      -0.086100
     29 H            1.7610     3.9790    -0.8500 hn         1 LK1       0.429800
     30 HA           3.6180     6.1540    -0.2910 h1         1 LK1       0.089700
     31 HBC1         5.3100     4.9440    -1.6240 hc         1 LK1       0.027200
     32 HBC2         4.3190     3.5000    -1.5680 hc         1 LK1       0.027200
     33 HGC1         4.4770     3.5650     0.9740 hc         1 LK1       0.006200
     34 HGC2         5.9620     3.2300     0.1390 hc         1 LK1       0.006200
     35 H17          2.5670     3.7140     2.6770 ha         1 LK1       0.142000
     36 H13          2.1680     7.9040     1.8080 ha         1 LK1       0.153000
     37 H16          4.0230     4.2250     4.5750 ha         1 LK1       0.124000
     38 H21          5.1710     5.8860     6.0030 ha         1 LK1       0.136000
     39 H19          4.6950    10.0770     5.1670 ha         1 LK1       0.111000
     40 H18          3.2810     9.5540     3.2670 ha         1 LK1       0.123000
     41 H231         5.2490    10.0790     7.4410 h1         1 LK1       0.027200
     42 H232         6.6250    10.0750     6.3300 h1         1 LK1       0.027200
     43 H241         8.0150     8.9250     8.0360 hc         1 LK1       0.052200
     44 H242         6.6540     8.9020     9.1500 hc         1 LK1       0.052200
     45 H251         6.5930    11.3940     9.1460 hc         1 LK1       0.035700
     46 H252         7.9160    11.4380     8.0020 hc         1 LK1       0.035700
     47 H261         8.0850    10.2700    10.8320 hc         1 LK1       0.027033
     48 H262         9.4160    10.3220     9.6810 hc         1 LK1       0.027033
     49 H263         8.7450    11.8200    10.3200 hc         1 LK1       0.027033
@<TRIPOS>BOND
     1     1     2 2   
     2     2     3 2   
     3     2     4 1   
     4     2    14 1   
     5     4     5 1   
     6     4    29 1   
     7     5     6 1   
     8     5     9 1   
     9     5    30 1   
    10     6     7 1   
    11     6     8 1   
    12     9    10 1   
    13     9    31 1   
    14     9    32 1   
    15    10    11 1   
    16    10    33 1   
    17    10    34 1   
    18    11    12 1   
    19    11    13 1   
    20    14    15 ar  
    21    14    23 ar  
    22    15    16 ar  
    23    15    35 1   
    24    16    17 ar  
    25    16    37 1   
    26    17    18 ar  
    27    17    22 ar  
    28    18    19 ar  
    29    18    38 1   
    30    19    20 ar  
    31    19    24 1   
    32    20    21 ar  
    33    20    39 1   
    34    21    22 ar  
    35    21    40 1   
    36    22    23 ar  
    37    23    36 1   
    38    24    25 1   
    39    25    26 1   
    40    25    41 1   
    41    25    42 1   
    42    26    27 1   
    43    26    43 1   
    44    26    44 1   
    45    27    28 1   
    46    27    45 1   
    47    27    46 1   
    48    28    47 1   
    49    28    48 1   
    50    28    49 1   
@<TRIPOS>SUBSTRUCTURE
     1 LK1         1 TEMP              0 ****  ****    0 ROOT
