@<TRIPOS>MOLECULE
LK1
   49    50     1     0     0
SMALL
No Charge or Current Charge


@<TRIPOS>ATOM
      1 O28          0.4530     3.8860     1.3460 o          1 LK1      -0.589500
      2 S11          1.1920     5.0840     0.9360 sy         1 LK1       1.123600
      3 O27          0.5250     6.2460     0.3470 o          1 LK1      -0.589500
      4 N            2.2830     4.5410    -0.2100 n7         1 LK1      -0.820300
      5 CA           3.5550     5.3090    -0.4650 c3         1 LK1       0.048500
      6 C            3.3240     6.7570    -1.0420 c          1 LK1       0.706000
      7 OXT          3.7720     7.7120    -0.4220 o          1 LK1      -0.738500
      8 O            2.7090     6.8740    -2.0950 o          1 LK1      -0.738500
      9 CB           4.4600     4.4960    -1.4330 c3         1 LK1      -0.020400
     10 CG           5.0910     3.2010    -0.8480 c3         1 LK1      -0.201400
     11 CD           6.1980     3.5360     0.1720 c          1 LK1       0.709000
     12 OE2          5.9060     3.5920     1.3550 o          1 LK1      -0.754000
     13 OE1          7.3230     3.7500    -0.2540 o          1 LK1      -0.754000
     14 C12          2.2620     5.5920     2.2890 ca         1 LK1      -0.243500
     15 C17          2.8920     4.6170     3.0860 ca         1 LK1       0.001000
     16 C16          3.7250     5.0080     4.1480 ca         1 LK1      -0.099000
     17 C15          3.9350     6.3720     4.4190 ca         1 LK1       0.058000
     18 C21          4.7680     6.7650     5.4830 ca         1 LK1      -0.132000
     19 C20          4.9790     8.1250     5.7560 ca         1 LK1       0.127100
     20 C19          4.3510     9.1040     4.9560 ca         1 LK1      -0.210000
     21 C18          3.5180     8.7160     3.8920 ca         1 LK1      -0.038000
     22 C14          3.3060     7.3520     3.6200 ca         1 LK1      -0.076000
     23 C13          2.4710     6.9600     2.5560 ca         1 LK1       0.030000
     24 O22          5.8060     8.4500     6.8120 os         1 LK1      -0.361100
     25 C23          6.0860     9.8130     7.1740 c3         1 LK1       0.173600
     26 C24          7.0350     9.7890     8.3880 c3         1 LK1      -0.083400
     27 C25          7.4170    11.2030     8.8810 c3         1 LK1      -0.075400
     28 C26          8.3660    11.1830    10.0950 c3         1 LK1      -0.086100
     29 H            1.7050     4.5930    -1.0470 hn         1 LK1       0.485000
     30 HA           4.1180     5.4430     0.4670 h1         1 LK1       0.089700
     31 HBC1         5.2720     5.1440    -1.7840 hc         1 LK1       0.027200
     32 HBC2         3.8780     4.2320    -2.3250 hc         1 LK1       0.027200
     33 HGC1         4.2790     2.6310    -0.3790 hc         1 LK1       0.006200
     34 HGC2         5.5290     2.6930    -1.7160 hc         1 LK1       0.006200
     35 H17          2.7430     3.5590     2.8820 ha         1 LK1       0.124000
     36 H13          1.9910     7.7190     1.9410 ha         1 LK1       0.135000
     37 H16          4.2090     4.2480     4.7560 ha         1 LK1       0.106000
     38 H21          5.2530     6.0150     6.1000 ha         1 LK1       0.118000
     39 H19          4.4950    10.1650     5.1420 ha         1 LK1       0.093000
     40 H18          3.0390     9.4780     3.2800 ha         1 LK1       0.105000
     41 H231         5.1610    10.3400     7.4430 h1         1 LK1       0.027200
     42 H232         6.5670    10.3440     6.3430 h1         1 LK1       0.027200
     43 H241         7.9460     9.2420     8.1180 hc         1 LK1       0.052200
     44 H242         6.5550     9.2380     9.2060 hc         1 LK1       0.052200
     45 H251         6.5060    11.7520     9.1500 hc         1 LK1       0.035700
     46 H252         7.8950    11.7560     8.0630 hc         1 LK1       0.035700
     47 H261         7.9010    10.6650    10.9430 hc         1 LK1       0.027033
     48 H262         9.3030    10.6690     9.8460 hc         1 LK1       0.027033
     49 H263         8.6080    12.2050    10.4080 hc         1 LK1       0.027033
@<TRIPOS>BOND
     1     1     2 2   
     2     2     3 2   
     3     2     4 1   
     4     2    14 1   
     5     4     5 1   
     6     4    29 1   
     7     5     6 1   
     8     5     9 1   
     9     5    30 1   
    10     6     7 1   
    11     6     8 1   
    12     9    10 1   
    13     9    31 1   
    14     9    32 1   
    15    10    11 1   
    16    10    33 1   
    17    10    34 1   
    18    11    12 1   
    19    11    13 1   
    20    14    15 ar  
    21    14    23 ar  
    22    15    16 ar  
    23    15    35 1   
    24    16    17 ar  
    25    16    37 1   
    26    17    18 ar  
    27    17    22 ar  
    28    18    19 ar  
    29    18    38 1   
    30    19    20 ar  
    31    19    24 1   
    32    20    21 ar  
    33    20    39 1   
    34    21    22 ar  
    35    21    40 1   
    36    22    23 ar  
    37    23    36 1   
    38    24    25 1   
    39    25    26 1   
    40    25    41 1   
    41    25    42 1   
    42    26    27 1   
    43    26    43 1   
    44    26    44 1   
    45    27    28 1   
    46    27    45 1   
    47    27    46 1   
    48    28    47 1   
    49    28    48 1   
    50    28    49 1   
@<TRIPOS>SUBSTRUCTURE
     1 LK1         1 TEMP              0 ****  ****    0 ROOT
