@<TRIPOS>MOLECULE
LK2
   49    50     1     0     0
SMALL
abcg2


@<TRIPOS>ATOM
      1 O32         -0.3740     2.7440     2.7470 o          1 LK2      -0.572500
      2 S11         -1.0410     2.0310     1.6670 sy         1 LK2       1.118600
      3 O33         -2.3700     1.4790     1.8930 o          1 LK2      -0.572500
      4 N           -0.0490     0.8150     1.2310 n7         1 LK2      -0.803300
      5 CA          -0.3630     0.0050     0.0540 c3         1 LK2       0.047500
      6 C            0.9420    -0.1600    -0.7700 c          1 LK2       0.720000
      7 O            1.9560     0.4230    -0.3350 o          1 LK2      -0.727500
      8 OXT          0.8480    -0.8540    -1.7940 o          1 LK2      -0.727500
      9 CB          -0.9860    -1.3340     0.4390 c3         1 LK2      -0.023400
     10 CG          -0.0790    -2.2040     1.2900 c3         1 LK2      -0.194400
     11 CD          -0.6870    -3.5350     1.7650 c          1 LK2       0.716000
     12 OE2          0.0700    -4.2730     2.4320 o          1 LK2      -0.768500
     13 OE1         -1.8710    -3.7810     1.4620 o          1 LK2      -0.768500
     14 C12         -1.1450     3.1200     0.2740 ca         1 LK2      -0.282500
     15 C13          0.0200     3.8230    -0.1150 ca         1 LK2       0.006000
     16 C14         -0.0200     4.6450    -1.2020 ca         1 LK2      -0.141000
     17 C15         -1.2140     4.8070    -1.9530 ca         1 LK2       0.034000
     18 C16         -2.3740     4.0980    -1.5460 ca         1 LK2      -0.092000
     19 C17         -2.3150     3.2480    -0.4190 ca         1 LK2       0.023000
     20 C21         -1.2730     5.6420    -3.0800 ca         1 LK2      -0.157000
     21 C20         -2.4440     5.7800    -3.7950 ca         1 LK2       0.136100
     22 C19         -3.6050     5.0810    -3.3860 ca         1 LK2      -0.210000
     23 C18         -3.5610     4.2630    -2.2900 ca         1 LK2      -0.041000
     24 O22         -2.4110     6.5900    -4.8650 os         1 LK2      -0.360100
     25 C23         -3.5860     6.7750    -5.6450 c3         1 LK2       0.171600
     26 C24         -3.2440     7.6760    -6.8130 c3         1 LK2      -0.082400
     27 C29         -4.4630     7.9420    -7.6870 c3         1 LK2      -0.075400
     28 C44         -4.1410     8.8220    -8.8870 c3         1 LK2      -0.087100
     29 H            0.9360     1.0910     1.1840 hn         1 LK2       0.515000
     30 HA          -1.0700     0.5370    -0.5980 h1         1 LK2       0.015700
     31 HBC1        -1.2580    -1.8550    -0.4800 hc         1 LK2       0.040200
     32 HBC2        -1.9220    -1.1430     0.9660 hc         1 LK2       0.040200
     33 HGC1         0.8440    -2.4330     0.7460 hc         1 LK2       0.030700
     34 HGC2         0.2430    -1.6460     2.1760 hc         1 LK2       0.030700
     35 H13          0.9400     3.7180     0.4450 ha         1 LK2       0.135000
     36 H17         -3.2030     2.7070    -0.1200 ha         1 LK2       0.140000
     37 H14          0.8690     5.1850    -1.5020 ha         1 LK2       0.106000
     38 H21         -0.3880     6.1830    -3.3940 ha         1 LK2       0.119000
     39 H18         -4.4530     3.7290    -1.9880 ha         1 LK2       0.113000
     40 H19         -4.5350     5.1780    -3.9270 ha         1 LK2       0.102000
     41 H231        -4.3780     7.2250    -5.0350 h1         1 LK2       0.030700
     42 H232        -3.9550     5.8110    -6.0110 h1         1 LK2       0.030700
     43 H241        -2.4550     7.2100    -7.4110 hc         1 LK2       0.052700
     44 H242        -2.8460     8.6250    -6.4400 hc         1 LK2       0.052700
     45 H291        -5.2450     8.4160    -7.0870 hc         1 LK2       0.036700
     46 H292        -4.8790     6.9910    -8.0350 hc         1 LK2       0.036700
     47 H441        -3.7420     9.7880    -8.5720 hc         1 LK2       0.029367
     48 H442        -3.3970     8.3530    -9.5340 hc         1 LK2       0.029367
     49 H443        -5.0300     9.0110    -9.4880 hc         1 LK2       0.029367
@<TRIPOS>BOND
     1     1     2 2   
     2     2     3 2   
     3     2     4 1   
     4     2    14 1   
     5     4     5 1   
     6     4    29 1   
     7     5     6 1   
     8     5     9 1   
     9     5    30 1   
    10     6     7 1   
    11     6     8 1   
    12     9    10 1   
    13     9    31 1   
    14     9    32 1   
    15    10    11 1   
    16    10    33 1   
    17    10    34 1   
    18    11    12 1   
    19    11    13 1   
    20    14    15 ar  
    21    14    19 ar  
    22    15    16 ar  
    23    15    35 1   
    24    16    17 ar  
    25    16    37 1   
    26    17    18 ar  
    27    17    20 ar  
    28    18    19 ar  
    29    18    23 ar  
    30    19    36 1   
    31    20    21 ar  
    32    20    38 1   
    33    21    22 ar  
    34    21    24 1   
    35    22    23 ar  
    36    22    40 1   
    37    23    39 1   
    38    24    25 1   
    39    25    26 1   
    40    25    41 1   
    41    25    42 1   
    42    26    27 1   
    43    26    43 1   
    44    26    44 1   
    45    27    28 1   
    46    27    45 1   
    47    27    46 1   
    48    28    47 1   
    49    28    48 1   
    50    28    49 1   
@<TRIPOS>SUBSTRUCTURE
     1 LK2         1 TEMP              0 ****  ****    0 ROOT
