@<TRIPOS>MOLECULE
LK2
   49    50     1     0     0
SMALL
No Charge or Current Charge


@<TRIPOS>ATOM
      1 O32          0.5800     2.5930     2.6450 o          1 LK2      -0.572500
      2 S11         -0.7560     2.4370     2.0690 sy         1 LK2       1.118600
      3 O33         -1.9750     2.6710     2.8480 o          1 LK2      -0.572500
      4 N           -0.8740     0.8490     1.5580 n7         1 LK2      -0.803300
      5 CA          -0.0600     0.3750     0.3870 c3         1 LK2       0.047500
      6 C            1.4940     0.2820     0.6610 c          1 LK2       0.720000
      7 O            1.8730    -0.1660     1.7370 o          1 LK2      -0.727500
      8 OXT          2.2600     0.7290    -0.1820 o          1 LK2      -0.727500
      9 CB          -0.6320    -0.9670    -0.1470 c3         1 LK2      -0.023400
     10 CG          -0.6180    -2.1670     0.8410 c3         1 LK2      -0.194400
     11 CD          -1.2260    -3.4070     0.1650 c          1 LK2       0.716000
     12 OE2         -0.4850    -4.1380    -0.4730 o          1 LK2      -0.768500
     13 OE1         -2.4310    -3.5840     0.2530 o          1 LK2      -0.768500
     14 C12         -0.8820     3.3430     0.5210 ca         1 LK2      -0.282500
     15 C13          0.2680     3.8960    -0.0780 ca         1 LK2       0.006000
     16 C14          0.1580     4.5940    -1.2930 ca         1 LK2      -0.141000
     17 C15         -1.0950     4.7420    -1.9150 ca         1 LK2       0.034000
     18 C16         -2.2460     4.1860    -1.3180 ca         1 LK2      -0.092000
     19 C17         -2.1380     3.4870    -0.1010 ca         1 LK2       0.023000
     20 C21         -1.2040     5.4400    -3.1310 ca         1 LK2      -0.157000
     21 C20         -2.4520     5.5890    -3.7570 ca         1 LK2       0.136100
     22 C19         -3.6030     5.0320    -3.1600 ca         1 LK2      -0.210000
     23 C18         -3.4980     4.3330    -1.9450 ca         1 LK2      -0.041000
     24 O22         -2.4960     6.2840    -4.9480 os         1 LK2      -0.360100
     25 C23         -3.7230     6.4910    -5.6680 c3         1 LK2       0.171600
     26 C24         -3.3910     7.3000    -6.9370 c3         1 LK2      -0.082400
     27 C29         -4.6340     7.5930    -7.8070 c3         1 LK2      -0.075400
     28 C44         -4.3050     8.4010    -9.0770 c3         1 LK2      -0.087100
     29 H           -0.5260     0.3720     2.3880 hn         1 LK2       0.515000
     30 HA          -0.1850     1.0830    -0.4420 h1         1 LK2       0.015700
     31 HBC1        -0.0720    -1.2450    -1.0480 hc         1 LK2       0.040200
     32 HBC2        -1.6650    -0.7940    -0.4740 hc         1 LK2       0.040200
     33 HGC1         0.4330    -2.3540     1.0850 hc         1 LK2       0.030700
     34 HGC2        -1.2290    -1.8710     1.7020 hc         1 LK2       0.030700
     35 H13          1.2450     3.7850     0.3880 ha         1 LK2       0.135000
     36 H17         -3.0250     3.0530     0.3560 ha         1 LK2       0.140000
     37 H14          1.0490     5.0170    -1.7490 ha         1 LK2       0.106000
     38 H21         -0.3200     5.8700    -3.5950 ha         1 LK2       0.119000
     39 H18         -4.3910     3.9070    -1.4910 ha         1 LK2       0.113000
     40 H19         -4.5820     5.1290    -3.6200 ha         1 LK2       0.102000
     41 H231        -4.4430     7.0500    -5.0550 h1         1 LK2       0.030700
     42 H232        -4.1730     5.5310    -5.9520 h1         1 LK2       0.030700
     43 H241        -2.6560     6.7440    -7.5320 hc         1 LK2       0.052700
     44 H242        -2.9220     8.2470    -6.6440 hc         1 LK2       0.052700
     45 H291        -5.3710     8.1470    -7.2120 hc         1 LK2       0.036700
     46 H292        -5.1050     6.6460    -8.0990 hc         1 LK2       0.036700
     47 H441        -3.8630     9.3710    -8.8160 hc         1 LK2       0.029367
     48 H442        -3.5950     7.8560    -9.7110 hc         1 LK2       0.029367
     49 H443        -5.2150     8.5840    -9.6600 hc         1 LK2       0.029367
@<TRIPOS>BOND
     1     1     2 2   
     2     2     3 2   
     3     2     4 1   
     4     2    14 1   
     5     4     5 1   
     6     4    29 1   
     7     5     6 1   
     8     5     9 1   
     9     5    30 1   
    10     6     7 1   
    11     6     8 1   
    12     9    10 1   
    13     9    31 1   
    14     9    32 1   
    15    10    11 1   
    16    10    33 1   
    17    10    34 1   
    18    11    12 1   
    19    11    13 1   
    20    14    15 ar  
    21    14    19 ar  
    22    15    16 ar  
    23    15    35 1   
    24    16    17 ar  
    25    16    37 1   
    26    17    18 ar  
    27    17    20 ar  
    28    18    19 ar  
    29    18    23 ar  
    30    19    36 1   
    31    20    21 ar  
    32    20    38 1   
    33    21    22 ar  
    34    21    24 1   
    35    22    23 ar  
    36    22    40 1   
    37    23    39 1   
    38    24    25 1   
    39    25    26 1   
    40    25    41 1   
    41    25    42 1   
    42    26    27 1   
    43    26    43 1   
    44    26    44 1   
    45    27    28 1   
    46    27    45 1   
    47    27    46 1   
    48    28    47 1   
    49    28    48 1   
    50    28    49 1   
@<TRIPOS>SUBSTRUCTURE
     1 LK2         1 TEMP              0 ****  ****    0 ROOT
