@<TRIPOS>MOLECULE
LK3
   52    53     1     0     0
SMALL
No Charge or Current Charge


@<TRIPOS>ATOM
      1 O28         -0.4310     2.9520     2.7740 o          1 LK3      -0.572000
      2 S11         -1.5000     2.5520     1.8570 sy         1 LK3       1.115600
      3 O27         -2.9170     2.7210     2.1880 o          1 LK3      -0.572000
      4 N           -1.3140     0.9120     1.5930 n7         1 LK3      -0.799300
      5 CA          -0.1360     0.4060     0.8110 c3         1 LK3       0.048500
      6 C            1.2530     0.5500     1.5490 c          1 LK3       0.719000
      7 OXT          2.2060     0.9840     0.9140 o          1 LK3      -0.727500
      8 O            1.3110     0.2930     2.7460 o          1 LK3      -0.727500
      9 CB          -0.3950    -1.0560     0.3500 c3         1 LK3      -0.025400
     10 CG          -0.5920    -2.1110     1.4740 c3         1 LK3      -0.195400
     11 CD          -0.8480    -3.4940     0.8530 c          1 LK3       0.715000
     12 OE2         -2.0000    -3.8140     0.6040 o          1 LK3      -0.768000
     13 OE1          0.1160    -4.1970     0.5900 o          1 LK3      -0.768000
     14 C12         -1.2080     3.2350     0.2190 ca         1 LK3      -0.282500
     15 C17          0.0200     3.8530    -0.0890 ca         1 LK3       0.007000
     16 C16          0.2390     4.3740    -1.3760 ca         1 LK3      -0.141000
     17 C15         -0.7620     4.2790    -2.3600 ca         1 LK3       0.034000
     18 C21         -0.5420     4.8000    -3.6470 ca         1 LK3      -0.157000
     19 C20         -1.5360     4.7050    -4.6330 ca         1 LK3       0.137100
     20 C19         -2.7650     4.0810    -4.3270 ca         1 LK3      -0.211000
     21 C18         -2.9900     3.5590    -3.0410 ca         1 LK3      -0.040000
     22 C14         -1.9910     3.6560    -2.0540 ca         1 LK3      -0.092000
     23 C13         -2.2120     3.1340    -0.7650 ca         1 LK3       0.024000
     24 O22         -1.2630     5.2340    -5.8770 os         1 LK3      -0.360100
     25 C23         -2.2140     5.1880    -6.9540 c3         1 LK3       0.172600
     26 C24         -1.5690     5.8690    -8.1780 c3         1 LK3      -0.082400
     27 C25         -2.4960     5.8870    -9.4140 c3         1 LK3      -0.075400
     28 C26         -1.8520     6.5690   -10.6410 c3         1 LK3      -0.075400
     29 C30         -2.7760     6.5870   -11.8740 c3         1 LK3      -0.088100
     30 H           -1.2080     0.5900     2.5540 hn         1 LK3       0.514000
     31 HA          -0.0530     0.9830    -0.1190 h1         1 LK3       0.015700
     32 HBC1         0.4420    -1.3690    -0.2860 hc         1 LK3       0.040700
     33 HBC2        -1.2830    -1.0610    -0.2950 hc         1 LK3       0.040700
     34 HGC1         0.3410    -2.1280     2.0480 hc         1 LK3       0.030700
     35 HGC2        -1.4660    -1.7920     2.0540 hc         1 LK3       0.030700
     36 H17          0.8070     3.9290     0.6590 ha         1 LK3       0.135000
     37 H13         -3.1580     2.6480    -0.5310 ha         1 LK3       0.139000
     38 H16          1.1890     4.8500    -1.6060 ha         1 LK3       0.105000
     39 H21          0.4030     5.2800    -3.8870 ha         1 LK3       0.118000
     40 H19         -3.5540     3.9920    -5.0680 ha         1 LK3       0.102000
     41 H18         -3.9400     3.0800    -2.8140 ha         1 LK3       0.112000
     42 H231        -2.4670     4.1500    -7.2040 h1         1 LK3       0.030700
     43 H232        -3.1350     5.7210    -6.6820 h1         1 LK3       0.030700
     44 H241        -1.2990     6.8980    -7.9120 hc         1 LK3       0.052700
     45 H242        -0.6400     5.3440    -8.4290 hc         1 LK3       0.052700
     46 H251        -3.4270     6.4090    -9.1590 hc         1 LK3       0.037200
     47 H252        -2.7680     4.8560    -9.6750 hc         1 LK3       0.037200
     48 H261        -1.5810     7.6000   -10.3850 hc         1 LK3       0.038200
     49 H262        -0.9220     6.0480   -10.9010 hc         1 LK3       0.038200
     50 H301        -3.0380     5.5660   -12.1780 hc         1 LK3       0.028700
     51 H302        -3.7030     7.1320   -11.6570 hc         1 LK3       0.028700
     52 H303        -2.2780     7.0790   -12.7180 hc         1 LK3       0.028700
@<TRIPOS>BOND
     1     1     2 2   
     2     2     3 2   
     3     2     4 1   
     4     2    14 1   
     5     4     5 1   
     6     4    30 1   
     7     5     6 1   
     8     5     9 1   
     9     5    31 1   
    10     6     7 1   
    11     6     8 1   
    12     9    10 1   
    13     9    32 1   
    14     9    33 1   
    15    10    11 1   
    16    10    34 1   
    17    10    35 1   
    18    11    12 1   
    19    11    13 1   
    20    14    15 ar  
    21    14    23 ar  
    22    15    16 ar  
    23    15    36 1   
    24    16    17 ar  
    25    16    38 1   
    26    17    18 ar  
    27    17    22 ar  
    28    18    19 ar  
    29    18    39 1   
    30    19    20 ar  
    31    19    24 1   
    32    20    21 ar  
    33    20    40 1   
    34    21    22 ar  
    35    21    41 1   
    36    22    23 ar  
    37    23    37 1   
    38    24    25 1   
    39    25    26 1   
    40    25    42 1   
    41    25    43 1   
    42    26    27 1   
    43    26    44 1   
    44    26    45 1   
    45    27    28 1   
    46    27    46 1   
    47    27    47 1   
    48    28    29 1   
    49    28    48 1   
    50    28    49 1   
    51    29    50 1   
    52    29    51 1   
    53    29    52 1   
@<TRIPOS>SUBSTRUCTURE
     1 LK3         1 TEMP              0 ****  ****    0 ROOT
