@<TRIPOS>MOLECULE
LK3
   52    53     1     0     0
SMALL
bcc


@<TRIPOS>ATOM
      1 O28         -1.3610     3.0360     2.5240 o          1 LK3      -0.642800
      2 S11         -1.6150     2.0940     1.4430 sy         1 LK3       1.257200
      3 O27         -2.9060     1.4230     1.3690 o          1 LK3      -0.642800
      4 N           -0.4530     0.9550     1.5370 n7         1 LK3      -0.744100
      5 CA          -0.3630    -0.0740     0.4990 c3         1 LK3       0.048500
      6 C            1.1230    -0.1810     0.0660 c          1 LK3       0.929600
      7 OXT          1.3790    -1.0460    -0.7860 o          1 LK3      -0.832800
      8 O            1.9220     0.6130     0.6050 o          1 LK3      -0.832800
      9 CB          -0.9320    -1.4040     0.9830 c3         1 LK3      -0.025400
     10 CG          -0.1800    -1.9960     2.1630 c3         1 LK3      -0.195400
     11 CD          -0.7870    -3.2800     2.7560 c          1 LK3       0.925600
     12 OE2         -1.9730    -3.5460     2.4770 o          1 LK3      -0.873300
     13 OE1         -0.0380    -3.9520     3.4960 o          1 LK3      -0.873300
     14 C12         -1.3640     2.9470    -0.0890 ca         1 LK3      -0.282500
     15 C17         -0.2110     3.7560    -0.2230 ca         1 LK3      -0.011000
     16 C16          0.0290     4.3990    -1.4000 ca         1 LK3      -0.159000
     17 C15         -0.8610     4.2700    -2.4990 ca         1 LK3       0.034000
     18 C21         -0.6270     4.9210    -3.7210 ca         1 LK3      -0.175000
     19 C20         -1.5060     4.7810    -4.7740 ca         1 LK3       0.137100
     20 C19         -2.6620     3.9780    -4.6230 ca         1 LK3      -0.229000
     21 C18         -2.9000     3.3360    -3.4380 ca         1 LK3      -0.058000
     22 C14         -2.0150     3.4580    -2.3470 ca         1 LK3      -0.092000
     23 C13         -2.2470     2.7960    -1.1210 ca         1 LK3       0.006000
     24 O22         -1.2010     5.4290    -5.9080 os         1 LK3      -0.336900
     25 C23         -2.0930     5.3850    -7.0140 c3         1 LK3       0.149400
     26 C24         -1.4770     6.1810    -8.1450 c3         1 LK3      -0.082400
     27 C25         -2.4040     6.2470    -9.3540 c3         1 LK3      -0.075400
     28 C26         -1.7910     7.0090   -10.5230 c3         1 LK3      -0.075400
     29 C30         -2.7280     7.0960   -11.7190 c3         1 LK3      -0.088100
     30 H            0.4820     1.3460     1.6840 hn         1 LK3       0.458800
     31 HA          -0.9220     0.2340    -0.3960 h1         1 LK3       0.015700
     32 HBC1        -0.9220    -2.1020     0.1430 hc         1 LK3       0.040700
     33 HBC2        -1.9810    -1.2600     1.2460 hc         1 LK3       0.040700
     34 HGC1         0.8580    -2.2020     1.8840 hc         1 LK3       0.030700
     35 HGC2        -0.1230    -1.2520     2.9670 hc         1 LK3       0.030700
     36 H17          0.4780     3.8730     0.6030 ha         1 LK3       0.153000
     37 H13         -3.1270     2.1740    -1.0180 ha         1 LK3       0.157000
     38 H16          0.9080     5.0220    -1.5040 ha         1 LK3       0.123000
     39 H21          0.2540     5.5420    -3.8370 ha         1 LK3       0.136000
     40 H19         -3.3680     3.8550    -5.4320 ha         1 LK3       0.120000
     41 H18         -3.7850     2.7200    -3.3350 ha         1 LK3       0.130000
     42 H231        -2.2600     4.3500    -7.3320 h1         1 LK3       0.030700
     43 H232        -3.0640     5.8090    -6.7350 h1         1 LK3       0.030700
     44 H241        -1.2560     7.1940    -7.7980 hc         1 LK3       0.052700
     45 H242        -0.5250     5.7250    -8.4340 hc         1 LK3       0.052700
     46 H251        -3.3470     6.7220    -9.0660 hc         1 LK3       0.037200
     47 H252        -2.6600     5.2330    -9.6790 hc         1 LK3       0.037200
     48 H261        -1.5210     8.0170   -10.1930 hc         1 LK3       0.038200
     49 H262        -0.8560     6.5250   -10.8180 hc         1 LK3       0.038200
     50 H301        -2.9860     6.1040   -12.0920 hc         1 LK3       0.028700
     51 H302        -3.6590     7.6000   -11.4520 hc         1 LK3       0.028700
     52 H303        -2.2770     7.6520   -12.5420 hc         1 LK3       0.028700
@<TRIPOS>BOND
     1     1     2 2   
     2     2     3 2   
     3     2     4 1   
     4     2    14 1   
     5     4     5 1   
     6     4    30 1   
     7     5     6 1   
     8     5     9 1   
     9     5    31 1   
    10     6     7 1   
    11     6     8 1   
    12     9    10 1   
    13     9    32 1   
    14     9    33 1   
    15    10    11 1   
    16    10    34 1   
    17    10    35 1   
    18    11    12 1   
    19    11    13 1   
    20    14    15 ar  
    21    14    23 ar  
    22    15    16 ar  
    23    15    36 1   
    24    16    17 ar  
    25    16    38 1   
    26    17    18 ar  
    27    17    22 ar  
    28    18    19 ar  
    29    18    39 1   
    30    19    20 ar  
    31    19    24 1   
    32    20    21 ar  
    33    20    40 1   
    34    21    22 ar  
    35    21    41 1   
    36    22    23 ar  
    37    23    37 1   
    38    24    25 1   
    39    25    26 1   
    40    25    42 1   
    41    25    43 1   
    42    26    27 1   
    43    26    44 1   
    44    26    45 1   
    45    27    28 1   
    46    27    46 1   
    47    27    47 1   
    48    28    29 1   
    49    28    48 1   
    50    28    49 1   
    51    29    50 1   
    52    29    51 1   
    53    29    52 1   
@<TRIPOS>SUBSTRUCTURE
     1 LK3         1 TEMP              0 ****  ****    0 ROOT
