@<TRIPOS>MOLECULE
LK4
   51    53     1     0     0
SMALL
No Charge or Current Charge


@<TRIPOS>ATOM
      1 N31        -11.6760     2.7120   -24.7330 n1         1 LK4      -0.476000
      2 C30        -12.5470     2.3980   -24.0220 cg         1 LK4       0.335000
      3 C27        -13.6160     2.0190   -23.1380 ca         1 LK4      -0.026000
      4 C28        -13.3480     1.2400   -21.9950 ca         1 LK4      -0.078000
      5 C29        -14.3940     0.8700   -21.1310 ca         1 LK4      -0.093500
      6 C26        -14.9380     2.4230   -23.4090 ca         1 LK4      -0.078000
      7 C25        -15.9820     2.0510   -22.5440 ca         1 LK4      -0.093500
      8 C24        -15.7160     1.2740   -21.3990 ca         1 LK4      -0.055300
      9 C23        -16.8480     0.8720   -20.4630 c3         1 LK4       0.209900
     10 O22        -17.3900    -0.3830   -20.9120 os         1 LK4      -0.355100
     11 C20        -18.4330    -1.0070   -20.2630 ca         1 LK4       0.130100
     12 C19        -19.0460    -0.4640   -19.1120 ca         1 LK4      -0.210000
     13 C18        -20.1070    -1.1460   -18.4910 ca         1 LK4      -0.031000
     14 C21        -18.8910    -2.2290   -20.7810 ca         1 LK4      -0.155000
     15 C15        -19.9520    -2.9140   -20.1630 ca         1 LK4       0.032000
     16 C16        -20.5630    -2.3710   -19.0120 ca         1 LK4      -0.090000
     17 C17        -21.6260    -3.0570   -18.3930 ca         1 LK4       0.038000
     18 C14        -20.4070    -4.1370   -20.6870 ca         1 LK4      -0.150000
     19 C13        -21.4680    -4.8220   -20.0700 ca         1 LK4       0.001000
     20 C12        -22.0770    -4.2830   -18.9200 ca         1 LK4      -0.241500
     21 S11        -23.4420    -5.1380   -18.1210 sy         1 LK4       1.112600
     22 O33        -23.3470    -4.9260   -16.6750 o          1 LK4      -0.570000
     23 O32        -23.6290    -6.4680   -18.7050 o          1 LK4      -0.570000
     24 N          -24.7600    -4.2250   -18.6000 n7         1 LK4      -0.828300
     25 CA         -24.9010    -3.8110   -20.0390 c3         1 LK4       0.038500
     26 C          -25.1410    -5.0130   -21.0340 c          1 LK4       0.715000
     27 O          -24.3440    -5.1860   -21.9470 o          1 LK4      -0.727500
     28 OXT        -26.0960    -5.7530   -20.8310 o          1 LK4      -0.727500
     29 CB         -26.0380    -2.7590   -20.1350 c3         1 LK4      -0.023400
     30 CG         -26.1740    -2.0980   -21.5310 c3         1 LK4      -0.199400
     31 CD         -27.2650    -1.0160   -21.4970 c          1 LK4       0.715000
     32 OE1        -28.4150    -1.3470   -21.7410 o          1 LK4      -0.765500
     33 OE2        -26.9430     0.1210   -21.1890 o          1 LK4      -0.765500
     34 H28        -12.3310     0.9200   -21.7750 ha         1 LK4       0.122500
     35 H26        -15.1580     3.0230   -24.2900 ha         1 LK4       0.122500
     36 H29        -14.1760     0.2650   -20.2530 ha         1 LK4       0.129000
     37 H25        -17.0000     2.3660   -22.7640 ha         1 LK4       0.129000
     38 H231       -16.4610     0.7830   -19.4400 h1         1 LK4       0.045200
     39 H232       -17.6210     1.6520   -20.4690 h1         1 LK4       0.045200
     40 H19        -18.7160     0.4790   -18.6870 ha         1 LK4       0.103000
     41 H21        -18.4170    -2.6430   -21.6670 ha         1 LK4       0.119000
     42 H18        -20.5730    -0.7200   -17.6050 ha         1 LK4       0.119000
     43 H14        -19.9420    -4.5580   -21.5750 ha         1 LK4       0.104000
     44 H17        -22.1010    -2.6360   -17.5090 ha         1 LK4       0.138000
     45 H13        -21.8140    -5.7640   -20.4920 ha         1 LK4       0.147000
     46 H          -25.5180    -4.8700   -18.3780 hn         1 LK4       0.494000
     47 HA         -23.9840    -3.3030   -20.3650 h1         1 LK4       0.039700
     48 HBC1       -26.9920    -3.2240   -19.8600 hc         1 LK4       0.029200
     49 HBC2       -25.8490    -1.9700   -19.3960 hc         1 LK4       0.029200
     50 HGC1       -25.1980    -1.6480   -21.7480 hc         1 LK4       0.033200
     51 HGC2       -26.4570    -2.8980   -22.2240 hc         1 LK4       0.033200
@<TRIPOS>BOND
     1     1     2 3   
     2     2     3 1   
     3     3     4 ar  
     4     3     6 ar  
     5     4     5 ar  
     6     4    34 1   
     7     5     8 ar  
     8     5    36 1   
     9     6     7 ar  
    10     6    35 1   
    11     7     8 ar  
    12     7    37 1   
    13     8     9 1   
    14     9    10 1   
    15     9    38 1   
    16     9    39 1   
    17    10    11 1   
    18    11    12 ar  
    19    11    14 ar  
    20    12    13 ar  
    21    12    40 1   
    22    13    16 ar  
    23    13    42 1   
    24    14    15 ar  
    25    14    41 1   
    26    15    16 ar  
    27    15    18 ar  
    28    16    17 ar  
    29    17    20 ar  
    30    17    44 1   
    31    18    19 ar  
    32    18    43 1   
    33    19    20 ar  
    34    19    45 1   
    35    20    21 1   
    36    21    22 2   
    37    21    23 2   
    38    21    24 1   
    39    24    25 1   
    40    24    46 1   
    41    25    26 1   
    42    25    29 1   
    43    25    47 1   
    44    26    27 1   
    45    26    28 1   
    46    29    30 1   
    47    29    48 1   
    48    29    49 1   
    49    30    31 1   
    50    30    50 1   
    51    30    51 1   
    52    31    32 1   
    53    31    33 1   
@<TRIPOS>SUBSTRUCTURE
     1 LK4         1 TEMP              0 ****  ****    0 ROOT
