@<TRIPOS>MOLECULE
LK4
   51    53     1     0     0
SMALL
bcc


@<TRIPOS>ATOM
      1 N31        -11.2220     2.6570   -24.0760 n1         1 LK4      -0.386800
      2 C30        -12.1740     2.3780   -23.4900 cg         1 LK4       0.245800
      3 C27        -13.3540     2.0290   -22.7650 ca         1 LK4      -0.026000
      4 C28        -13.3100     1.9270   -21.3770 ca         1 LK4      -0.096000
      5 C29        -14.4570     1.5740   -20.6850 ca         1 LK4      -0.111500
      6 C26        -14.5430     1.7870   -23.4550 ca         1 LK4      -0.096000
      7 C25        -15.6800     1.4410   -22.7500 ca         1 LK4      -0.111500
      8 C24        -15.6470     1.3290   -21.3610 ca         1 LK4      -0.055300
      9 C23        -16.8860     0.9510   -20.6040 c3         1 LK4       0.186700
     10 O22        -17.3250    -0.2990   -21.1110 os         1 LK4      -0.331900
     11 C20        -18.3810    -0.9110   -20.5470 ca         1 LK4       0.130100
     12 C19        -19.1140    -0.3610   -19.4680 ca         1 LK4      -0.228000
     13 C18        -20.1630    -1.0530   -18.9310 ca         1 LK4      -0.049000
     14 C21        -18.7360    -2.1350   -21.0680 ca         1 LK4      -0.173000
     15 C15        -19.8120    -2.8600   -20.5260 ca         1 LK4       0.032000
     16 C16        -20.5390    -2.3180   -19.4330 ca         1 LK4      -0.090000
     17 C17        -21.6020    -3.0540   -18.8720 ca         1 LK4       0.020000
     18 C14        -20.1920    -4.1250   -21.0360 ca         1 LK4      -0.168000
     19 C13        -21.2280    -4.8240   -20.4860 ca         1 LK4      -0.017000
     20 C12        -21.9330    -4.2770   -19.3930 ca         1 LK4      -0.241500
     21 S11        -23.2120    -5.2260   -18.6140 sy         1 LK4       1.254200
     22 O33        -22.9020    -5.3910   -17.1990 o          1 LK4      -0.640800
     23 O32        -23.4020    -6.4320   -19.4130 o          1 LK4      -0.640800
     24 N          -24.4850    -4.1830   -18.6810 n7         1 LK4      -0.773100
     25 CA         -25.1610    -4.0190   -19.9760 c3         1 LK4       0.038500
     26 C          -26.1050    -5.2070   -20.2830 c          1 LK4       0.925600
     27 O          -26.2010    -5.5570   -21.4720 o          1 LK4      -0.832800
     28 OXT        -26.7160    -5.6710   -19.2990 o          1 LK4      -0.832800
     29 CB         -25.9290    -2.6950   -19.9010 c3         1 LK4      -0.023400
     30 CG         -26.6720    -2.3230   -21.1730 c3         1 LK4      -0.199400
     31 CD         -27.3530    -0.9380   -21.1530 c          1 LK4       0.925600
     32 OE1        -28.0130    -0.6470   -22.1730 o          1 LK4      -0.870800
     33 OE2        -27.1950    -0.2260   -20.1410 o          1 LK4      -0.870800
     34 H28        -12.3880     2.1140   -20.8440 ha         1 LK4       0.140500
     35 H26        -14.5740     1.8720   -24.5330 ha         1 LK4       0.140500
     36 H29        -14.4190     1.4850   -19.6070 ha         1 LK4       0.147000
     37 H25        -16.6010     1.2590   -23.2900 ha         1 LK4       0.147000
     38 H231       -16.6670     0.8880   -19.5330 h1         1 LK4       0.045200
     39 H232       -17.6600     1.7140   -20.7440 h1         1 LK4       0.045200
     40 H19        -18.8570     0.6040   -19.0520 ha         1 LK4       0.121000
     41 H21        -18.1750    -2.5490   -21.8980 ha         1 LK4       0.137000
     42 H18        -20.7180    -0.6290   -18.1040 ha         1 LK4       0.137000
     43 H14        -19.6460    -4.5400   -21.8750 ha         1 LK4       0.122000
     44 H17        -22.1500    -2.6340   -18.0380 ha         1 LK4       0.156000
     45 H13        -21.5070    -5.7870   -20.8890 ha         1 LK4       0.165000
     46 H          -25.1630    -4.4410   -17.9640 hn         1 LK4       0.438800
     47 HA         -24.3960    -3.9320   -20.7540 h1         1 LK4       0.039700
     48 HBC1       -26.6300    -2.7510   -19.0620 hc         1 LK4       0.029200
     49 HBC2       -25.2150    -1.9080   -19.6510 hc         1 LK4       0.029200
     50 HGC1       -25.9840    -2.3510   -22.0260 hc         1 LK4       0.033200
     51 HGC2       -27.4360    -3.0700   -21.4040 hc         1 LK4       0.033200
@<TRIPOS>BOND
     1     1     2 3   
     2     2     3 1   
     3     3     4 ar  
     4     3     6 ar  
     5     4     5 ar  
     6     4    34 1   
     7     5     8 ar  
     8     5    36 1   
     9     6     7 ar  
    10     6    35 1   
    11     7     8 ar  
    12     7    37 1   
    13     8     9 1   
    14     9    10 1   
    15     9    38 1   
    16     9    39 1   
    17    10    11 1   
    18    11    12 ar  
    19    11    14 ar  
    20    12    13 ar  
    21    12    40 1   
    22    13    16 ar  
    23    13    42 1   
    24    14    15 ar  
    25    14    41 1   
    26    15    16 ar  
    27    15    18 ar  
    28    16    17 ar  
    29    17    20 ar  
    30    17    44 1   
    31    18    19 ar  
    32    18    43 1   
    33    19    20 ar  
    34    19    45 1   
    35    20    21 1   
    36    21    22 2   
    37    21    23 2   
    38    21    24 1   
    39    24    25 1   
    40    24    46 1   
    41    25    26 1   
    42    25    29 1   
    43    25    47 1   
    44    26    27 1   
    45    26    28 1   
    46    29    30 1   
    47    29    48 1   
    48    29    49 1   
    49    30    31 1   
    50    30    50 1   
    51    30    51 1   
    52    31    32 1   
    53    31    33 1   
@<TRIPOS>SUBSTRUCTURE
     1 LK4         1 TEMP              0 ****  ****    0 ROOT
