@<TRIPOS>MOLECULE
LK5
   48    49     1     0     0
SMALL
abcg2


@<TRIPOS>ATOM
      1 C1           6.6820    -1.3000    -1.8910 c3         1 LK5      -0.086100
      2 C3           5.8690    -1.0460    -0.6290 c3         1 LK5      -0.075400
      3 C4           4.4060    -0.7440    -0.9260 c3         1 LK5      -0.083400
      4 C5           3.6050    -0.4910     0.3370 c3         1 LK5       0.168600
      5 O4           2.2630    -0.2460    -0.0070 os         1 LK5      -0.466000
      6 C6           1.4810     0.3450     1.0220 c6         1 LK5       0.251500
      7 C7           1.2850    -0.5930     2.2220 c6         1 LK5      -0.104400
      8 C8           0.4560    -1.8250     1.8670 c6         1 LK5      -0.061400
      9 C9          -0.9030    -1.4570     1.2680 c6         1 LK5      -0.066400
     10 C10         -0.7020    -0.5760     0.0290 c5         1 LK5      -0.019500
     11 C11          0.1350     0.6110     0.4470 c2         1 LK5      -0.243400
     12 C12         -0.6550     1.6920     0.5280 ce         1 LK5       0.044800
     13 C13         -0.3410     3.1080     0.9600 c          1 LK5       0.722200
     14 O3           0.7510     3.3150     1.5200 o          1 LK5      -0.715000
     15 O2          -1.2180     3.9530     0.6930 o          1 LK5      -0.715000
     16 N1          -1.9720     1.3960     0.1570 nu         1 LK5      -0.763200
     17 C14         -1.9440     0.1270    -0.5570 c5         1 LK5       0.188500
     18 C15         -3.2650    -0.6420    -0.4620 c3         1 LK5      -0.174700
     19 C16         -4.4460     0.2110    -0.9520 c3         1 LK5      -0.073400
     20 C2          -5.7900    -0.5000    -0.8690 c3         1 LK5      -0.091100
     21 C17         -3.1640    -1.8570    -1.3370 c          1 LK5       0.587900
     22 O1          -3.3200    -3.0000    -0.9860 o          1 LK5      -0.539100
     23 H11          7.7290    -1.4970    -1.6590 hc         1 LK5       0.026033
     24 H12          6.2980    -2.1590    -2.4430 hc         1 LK5       0.026033
     25 H13          6.6480    -0.4380    -2.5590 hc         1 LK5       0.026033
     26 H31          5.9360    -1.9160     0.0310 hc         1 LK5       0.033200
     27 H32          6.3090    -0.2110    -0.0760 hc         1 LK5       0.033200
     28 H41          4.3370     0.1310    -1.5810 hc         1 LK5       0.047700
     29 H42          3.9630    -1.5830    -1.4730 hc         1 LK5       0.047700
     30 H51          3.6940    -1.3600     1.0050 h1         1 LK5       0.011200
     31 H52          4.0280     0.3670     0.8800 h1         1 LK5       0.011200
     32 H6           1.9530     1.2740     1.3580 h1         1 LK5       0.088700
     33 H71          2.2470    -0.8910     2.6500 hc         1 LK5       0.037200
     34 H72          0.7740    -0.0170     3.0000 hc         1 LK5       0.037200
     35 H81          1.0070    -2.4460     1.1540 hc         1 LK5       0.023200
     36 H82          0.3120    -2.4390     2.7590 hc         1 LK5       0.023200
     37 H91         -1.4510    -2.3700     1.0210 hc         1 LK5       0.036200
     38 H92         -1.4990    -0.9200     2.0140 hc         1 LK5       0.036200
     39 H10         -0.2160    -1.1850    -0.7410 hc         1 LK5       0.046700
     40 HN1         -2.4400     2.1550    -0.3160 hn         1 LK5       0.462000
     41 H14         -1.7380     0.3120    -1.6250 h1         1 LK5       0.017700
     42 H15         -3.4510    -0.9520     0.5700 hc         1 LK5       0.084700
     43 H161        -4.4820     1.1130    -0.3380 hc         1 LK5       0.051200
     44 H162        -4.2580     0.5420    -1.9780 hc         1 LK5       0.051200
     45 H21         -5.9840    -0.8580     0.1430 hc         1 LK5       0.028700
     46 H22         -6.5990     0.1770    -1.1420 hc         1 LK5       0.028700
     47 H23         -5.8480    -1.3590    -1.5400 hc         1 LK5       0.028700
     48 H17         -2.9380    -1.6230    -2.3970 h4         1 LK5      -0.031800
@<TRIPOS>BOND
     1     1     2 1   
     2     1    23 1   
     3     1    24 1   
     4     1    25 1   
     5     2     3 1   
     6     2    26 1   
     7     2    27 1   
     8     3     4 1   
     9     3    28 1   
    10     3    29 1   
    11     4     5 1   
    12     4    30 1   
    13     4    31 1   
    14     5     6 1   
    15     6     7 1   
    16     6    11 1   
    17     6    32 1   
    18     7     8 1   
    19     7    33 1   
    20     7    34 1   
    21     8     9 1   
    22     8    35 1   
    23     8    36 1   
    24     9    10 1   
    25     9    37 1   
    26     9    38 1   
    27    10    11 1   
    28    10    17 1   
    29    10    39 1   
    30    11    12 2   
    31    12    13 1   
    32    12    16 1   
    33    13    14 1   
    34    13    15 1   
    35    16    17 1   
    36    16    40 1   
    37    17    18 1   
    38    17    41 1   
    39    18    19 1   
    40    18    21 1   
    41    18    42 1   
    42    19    20 1   
    43    19    43 1   
    44    19    44 1   
    45    20    45 1   
    46    20    46 1   
    47    20    47 1   
    48    21    22 2   
    49    21    48 1   
@<TRIPOS>SUBSTRUCTURE
     1 LK5         1 TEMP              0 ****  ****    0 ROOT
