@<TRIPOS>MOLECULE
LK5
   48    49     1     0     0
SMALL
No Charge or Current Charge


@<TRIPOS>ATOM
      1 C1           6.6790    -1.3820    -2.0040 c3         1 LK5      -0.086100
      2 C3           5.9620    -0.9720    -0.7040 c3         1 LK5      -0.075400
      3 C4           4.4480    -0.7350    -0.8970 c3         1 LK5      -0.083400
      4 C5           3.7340    -0.3260     0.4050 c3         1 LK5       0.168600
      5 O4           2.3430    -0.1360     0.0970 os         1 LK5      -0.466000
      6 C6           1.4860     0.3480     1.1570 c6         1 LK5       0.251500
      7 C7           1.3110    -0.6970     2.3020 c6         1 LK5      -0.104400
      8 C8           0.4770    -1.9360     1.8590 c6         1 LK5      -0.061400
      9 C9          -0.9040    -1.5320     1.2600 c6         1 LK5      -0.066400
     10 C10         -0.7180    -0.5460     0.0710 c5         1 LK5      -0.019500
     11 C11          0.1050     0.6090     0.5800 c2         1 LK5      -0.243400
     12 C12         -0.6780     1.7040     0.5920 ce         1 LK5       0.044800
     13 C13         -0.3050     3.1350     1.0540 c          1 LK5       0.722200
     14 O3           0.8170     3.3670     1.4840 o          1 LK5      -0.715000
     15 O2          -1.1560     4.0140     0.9590 o          1 LK5      -0.715000
     16 N1          -1.9910     1.4660     0.1070 nu         1 LK5      -0.763200
     17 C14         -1.9770     0.1500    -0.5850 c5         1 LK5       0.188500
     18 C15         -3.3400    -0.5890    -0.5010 c3         1 LK5      -0.174700
     19 C16         -4.5170     0.2340    -1.1050 c3         1 LK5      -0.073400
     20 C2          -5.8890    -0.4690    -1.0170 c3         1 LK5      -0.091100
     21 C17         -3.2240    -1.9410    -1.2170 c          1 LK5       0.587900
     22 O1          -3.4490    -3.0190    -0.6780 o          1 LK5      -0.539100
     23 H11          7.7490    -1.5390    -1.8180 hc         1 LK5       0.026033
     24 H12          6.2600    -2.3140    -2.4020 hc         1 LK5       0.026033
     25 H13          6.5750    -0.6020    -2.7680 hc         1 LK5       0.026033
     26 H31          6.1140    -1.7550     0.0490 hc         1 LK5       0.033200
     27 H32          6.4260    -0.0570    -0.3140 hc         1 LK5       0.033200
     28 H41          4.2970     0.0500    -1.6490 hc         1 LK5       0.047700
     29 H42          3.9850    -1.6500    -1.2860 hc         1 LK5       0.047700
     30 H51          3.8700    -1.1170     1.1530 h1         1 LK5       0.011200
     31 H52          4.1750     0.6030     0.7910 h1         1 LK5       0.011200
     32 H6           1.9320     1.2610     1.5730 h1         1 LK5       0.088700
     33 H71          2.2820    -1.0140     2.7020 hc         1 LK5       0.037200
     34 H72          0.7950    -0.2090     3.1400 hc         1 LK5       0.037200
     35 H81          1.0440    -2.5140     1.1160 hc         1 LK5       0.023200
     36 H82          0.3240    -2.6040     2.7170 hc         1 LK5       0.023200
     37 H91         -1.4330    -2.4360     0.9350 hc         1 LK5       0.036200
     38 H92         -1.5220    -1.0660     2.0400 hc         1 LK5       0.036200
     39 H10         -0.1680    -1.1090    -0.6920 hc         1 LK5       0.046700
     40 HN1         -2.5060     2.2760    -0.2440 hn         1 LK5       0.462000
     41 H14         -1.7670     0.3160    -1.6510 h1         1 LK5       0.017700
     42 H15         -3.5780    -0.7920     0.5490 hc         1 LK5       0.084700
     43 H161        -4.5980     1.1950    -0.5810 hc         1 LK5       0.051200
     44 H162        -4.3020     0.4670    -2.1550 hc         1 LK5       0.051200
     45 H21         -6.1290    -0.7230     0.0220 hc         1 LK5       0.028700
     46 H22         -6.6770     0.1920    -1.3970 hc         1 LK5       0.028700
     47 H23         -5.9040    -1.3880    -1.6140 hc         1 LK5       0.028700
     48 H17         -2.9160    -1.8900    -2.2850 h4         1 LK5      -0.031800
@<TRIPOS>BOND
     1     1     2 1   
     2     1    23 1   
     3     1    24 1   
     4     1    25 1   
     5     2     3 1   
     6     2    26 1   
     7     2    27 1   
     8     3     4 1   
     9     3    28 1   
    10     3    29 1   
    11     4     5 1   
    12     4    30 1   
    13     4    31 1   
    14     5     6 1   
    15     6     7 1   
    16     6    11 1   
    17     6    32 1   
    18     7     8 1   
    19     7    33 1   
    20     7    34 1   
    21     8     9 1   
    22     8    35 1   
    23     8    36 1   
    24     9    10 1   
    25     9    37 1   
    26     9    38 1   
    27    10    11 1   
    28    10    17 1   
    29    10    39 1   
    30    11    12 2   
    31    12    13 1   
    32    12    16 1   
    33    13    14 1   
    34    13    15 1   
    35    16    17 1   
    36    16    40 1   
    37    17    18 1   
    38    17    41 1   
    39    18    19 1   
    40    18    21 1   
    41    18    42 1   
    42    19    20 1   
    43    19    43 1   
    44    19    44 1   
    45    20    45 1   
    46    20    46 1   
    47    20    47 1   
    48    21    22 2   
    49    21    48 1   
@<TRIPOS>SUBSTRUCTURE
     1 LK5         1 TEMP              0 ****  ****    0 ROOT
