@<TRIPOS>MOLECULE
LK6
   29    30     1     0     0
SMALL
No Charge or Current Charge


@<TRIPOS>ATOM
      1 N1          34.3890    24.4890   103.4160 ns         1 LK6      -0.522900
      2 C4          37.0590    24.6550   104.3780 c5         1 LK6      -0.266400
      3 C5          34.9930    23.1430   105.2580 c5         1 LK6      -0.309400
      4 C6          34.0870    25.5970   102.6480 c          1 LK6       0.641100
      5 C7          33.9080    25.2650   101.1890 cx         1 LK6      -0.247700
      6 C8          35.0520    24.6140   100.4360 cx         1 LK6      -0.096400
      7 C1          33.3610    25.0920   105.6520 c3         1 LK6      -0.093100
      8 C2          34.5990    24.5960   104.8710 c5         1 LK6       0.156400
      9 C3          35.9190    25.4140   105.1300 c5         1 LK6      -0.074400
     10 S1          36.7410    22.8630   104.7040 s6         1 LK6       1.040000
     11 O1          37.5530    22.4020   105.8380 o          1 LK6      -0.515500
     12 O2          36.7540    22.1170   103.4390 o          1 LK6      -0.515500
     13 O3          33.9650    26.7360   103.0730 o          1 LK6      -0.607100
     14 C9          34.6930    26.0540   100.1590 cx         1 LK6      -0.096400
     15 H1          34.4260    23.6110   102.9140 hn         1 LK6       0.323500
     16 H2          38.0650    24.8910   104.7420 h1         1 LK6       0.112200
     17 H3          37.0190    24.7860   103.2910 h1         1 LK6       0.112200
     18 H4          35.0110    23.0030   106.3450 h1         1 LK6       0.113200
     19 H5          34.3620    22.3680   104.8100 h1         1 LK6       0.113200
     20 H6          32.9010    24.9650   100.9120 hc         1 LK6       0.089700
     21 H7          34.8060    23.8760    99.6750 hc         1 LK6       0.082200
     22 H8          35.9820    24.4220   100.9670 hc         1 LK6       0.082200
     23 H9          33.5240    25.0130   106.7330 hc         1 LK6       0.052033
     24 H10         33.1290    26.1410   105.4360 hc         1 LK6       0.052033
     25 H11         32.4750    24.4940   105.4060 hc         1 LK6       0.052033
     26 H12         35.8460    26.4570   104.8050 hc         1 LK6       0.080200
     27 H13         36.1290    25.4560   106.2070 hc         1 LK6       0.080200
     28 H14         35.3780    26.8230   100.5130 hc         1 LK6       0.082200
     29 H15         34.2060    26.2830    99.2140 hc         1 LK6       0.082200
@<TRIPOS>BOND
     1     1     4 1   
     2     1     8 1   
     3     1    15 1   
     4     2     9 1   
     5     2    10 1   
     6     2    16 1   
     7     2    17 1   
     8     3     8 1   
     9     3    10 1   
    10     3    18 1   
    11     3    19 1   
    12     4     5 1   
    13     4    13 2   
    14     5     6 1   
    15     5    14 1   
    16     5    20 1   
    17     6    14 1   
    18     6    21 1   
    19     6    22 1   
    20     7     8 1   
    21     7    23 1   
    22     7    24 1   
    23     7    25 1   
    24     8     9 1   
    25     9    26 1   
    26     9    27 1   
    27    10    11 2   
    28    10    12 2   
    29    14    28 1   
    30    14    29 1   
@<TRIPOS>SUBSTRUCTURE
     1 LK6         1 TEMP              0 ****  ****    0 ROOT
