@<TRIPOS>MOLECULE
LK6
   29    30     1     0     0
SMALL
bcc


@<TRIPOS>ATOM
      1 N1          34.5400    24.4450   103.4010 ns         1 LK6      -0.589900
      2 C4          37.1380    24.1980   104.7340 c5         1 LK6      -0.155600
      3 C5          34.7550    23.1790   105.4290 c5         1 LK6      -0.198600
      4 C6          34.6230    25.4360   102.4880 c          1 LK6       0.708100
      5 C7          34.3910    24.9880   101.0860 cx         1 LK6      -0.247700
      6 C8          35.2520    25.5930   100.0070 cx         1 LK6      -0.096400
      7 C1          33.5490    25.3880   105.4610 c3         1 LK6      -0.093100
      8 C2          34.6930    24.5920   104.8460 c5         1 LK6       0.156400
      9 C3          36.0730    25.1800   105.2010 c5         1 LK6      -0.074400
     10 S1          36.3980    22.5600   104.9790 s6         1 LK6       0.960000
     11 O1          37.0160    21.8810   106.1160 o          1 LK6      -0.586300
     12 O2          36.3250    21.8410   103.7080 o          1 LK6      -0.586300
     13 O3          34.8880    26.5960   102.7670 o          1 LK6      -0.607100
     14 C9          33.8210    25.9760   100.1050 cx         1 LK6      -0.096400
     15 H1          34.2310    23.5470   103.0620 hn         1 LK6       0.323500
     16 H2          38.0590    24.2460   105.3110 h1         1 LK6       0.112200
     17 H3          37.3690    24.3000   103.6750 h1         1 LK6       0.112200
     18 H4          34.6980    23.2170   106.5170 h1         1 LK6       0.113200
     19 H5          33.9950    22.4920   105.0530 h1         1 LK6       0.113200
     20 H6          34.1100    23.9500   100.9490 hc         1 LK6       0.089700
     21 H7          35.5610    24.9340    99.2060 hc         1 LK6       0.082200
     22 H8          35.9980    26.3150   100.3120 hc         1 LK6       0.082200
     23 H9          33.6610    25.4430   106.5440 hc         1 LK6       0.052033
     24 H10         33.5350    26.4030   105.0700 hc         1 LK6       0.052033
     25 H11         32.5900    24.9190   105.2390 hc         1 LK6       0.052033
     26 H12         36.2280    26.1620   104.7630 hc         1 LK6       0.080200
     27 H13         36.1210    25.2940   106.2860 hc         1 LK6       0.080200
     28 H14         33.5830    26.9640   100.4770 hc         1 LK6       0.082200
     29 H15         33.1290    25.5880    99.3700 hc         1 LK6       0.082200
@<TRIPOS>BOND
     1     1     4 1   
     2     1     8 1   
     3     1    15 1   
     4     2     9 1   
     5     2    10 1   
     6     2    16 1   
     7     2    17 1   
     8     3     8 1   
     9     3    10 1   
    10     3    18 1   
    11     3    19 1   
    12     4     5 1   
    13     4    13 2   
    14     5     6 1   
    15     5    14 1   
    16     5    20 1   
    17     6    14 1   
    18     6    21 1   
    19     6    22 1   
    20     7     8 1   
    21     7    23 1   
    22     7    24 1   
    23     7    25 1   
    24     8     9 1   
    25     9    26 1   
    26     9    27 1   
    27    10    11 2   
    28    10    12 2   
    29    14    28 1   
    30    14    29 1   
@<TRIPOS>SUBSTRUCTURE
     1 LK6         1 TEMP              0 ****  ****    0 ROOT
