@<TRIPOS>MOLECULE
LK7
   37    38     1     0     0
SMALL
abcg2


@<TRIPOS>ATOM
      1 C1          -4.3620     0.8940    -1.3510 c3         1 LK7      -0.056900
      2 C2          -3.8330     0.2530    -0.1210 c2         1 LK7      -0.192200
      3 C3          -2.6040    -0.2400     0.1120 ce         1 LK7      -0.203400
      4 C4          -2.4200    -0.7630     1.4740 c          1 LK7       0.555100
      5 O1          -1.4010    -1.2040     1.9520 o          1 LK7      -0.466100
      6 C5          -1.5000    -0.2540    -0.9180 c5         1 LK7       0.233700
      7 N1          -0.7320    -1.4970    -0.9400 nu         1 LK7      -0.761200
      8 C6           0.5150    -1.2740    -0.3570 ce         1 LK7       0.079800
      9 C7           1.3320    -2.4870     0.0280 c          1 LK7       0.724200
     10 O2           2.4800    -2.3000     0.4740 o          1 LK7      -0.716500
     11 O3           0.7630    -3.5870    -0.1290 o          1 LK7      -0.716500
     12 C8           0.7830     0.0320    -0.2390 c2         1 LK7      -0.254400
     13 C9          -0.3980     0.8320    -0.7330 c5         1 LK7      -0.011500
     14 C10         -0.7240     2.0150     0.1740 c6         1 LK7      -0.059400
     15 C11          0.5430     2.8080     0.4820 c6         1 LK7      -0.061400
     16 C12          1.5990     1.9140     1.1230 c6         1 LK7      -0.102400
     17 C13          2.0060     0.7490     0.2160 c6         1 LK7       0.255500
     18 O4           2.6840     1.2020    -0.9570 os         1 LK7      -0.457000
     19 C14          3.9360     1.7860    -0.7130 c3         1 LK7       0.156900
     20 H11         -4.6560     1.9220    -1.1280 hc         1 LK7       0.039700
     21 H12         -3.6610     0.9190    -2.1810 hc         1 LK7       0.039700
     22 H13A        -5.2710     0.3830    -1.6760 hc         1 LK7       0.039700
     23 H2          -4.5500     0.2000     0.6950 ha         1 LK7       0.152000
     24 H4          -3.3440    -0.7180     2.0830 h4         1 LK7      -0.044800
     25 H5          -1.9720    -0.1110    -1.8910 h1         1 LK7       0.044700
     26 HN1         -1.2030    -2.3310    -0.6250 hn         1 LK7       0.470000
     27 H9          -0.1660     1.2440    -1.7250 hc         1 LK7       0.048700
     28 H101        -1.4780     2.6570    -0.2910 hc         1 LK7       0.021200
     29 H102        -1.1510     1.6650     1.1180 hc         1 LK7       0.021200
     30 H111         0.9390     3.2530    -0.4360 hc         1 LK7       0.022700
     31 H112         0.3060     3.6410     1.1480 hc         1 LK7       0.022700
     32 H121         2.4740     2.5010     1.4180 hc         1 LK7       0.032700
     33 H122         1.2010     1.4890     2.0510 hc         1 LK7       0.032700
     34 H13          2.6630     0.0710     0.7690 h1         1 LK7       0.086700
     35 H141         3.8670     2.7830    -0.2610 h1         1 LK7       0.008700
     36 H142         4.5630     1.1670    -0.0590 h1         1 LK7       0.008700
     37 H143         4.4470     1.8920    -1.6710 h1         1 LK7       0.008700
@<TRIPOS>BOND
     1     1     2 1   
     2     1    20 1   
     3     1    21 1   
     4     1    22 1   
     5     2     3 2   
     6     2    23 1   
     7     3     4 1   
     8     3     6 1   
     9     4     5 2   
    10     4    24 1   
    11     6     7 1   
    12     6    13 1   
    13     6    25 1   
    14     7     8 1   
    15     7    26 1   
    16     8     9 1   
    17     8    12 2   
    18     9    10 1   
    19     9    11 1   
    20    12    13 1   
    21    12    17 1   
    22    13    14 1   
    23    13    27 1   
    24    14    15 1   
    25    14    28 1   
    26    14    29 1   
    27    15    16 1   
    28    15    30 1   
    29    15    31 1   
    30    16    17 1   
    31    16    32 1   
    32    16    33 1   
    33    17    18 1   
    34    17    34 1   
    35    18    19 1   
    36    19    35 1   
    37    19    36 1   
    38    19    37 1   
@<TRIPOS>SUBSTRUCTURE
     1 LK7         1 TEMP              0 ****  ****    0 ROOT
