@<TRIPOS>MOLECULE
LK7
   37    38     1     0     0
SMALL
No Charge or Current Charge


@<TRIPOS>ATOM
      1 C1          -4.5610     0.7400    -1.3910 c3         1 LK7      -0.056900
      2 C2          -3.9810     0.2650    -0.0750 c2         1 LK7      -0.192200
      3 C3          -2.7020    -0.1340     0.1410 ce         1 LK7      -0.203400
      4 C4          -2.3060    -0.5680     1.5410 c          1 LK7       0.555100
      5 O1          -1.2030    -0.9100     1.9450 o          1 LK7      -0.466100
      6 C5          -1.5990    -0.1760    -0.9540 c5         1 LK7       0.233700
      7 N1          -0.8920    -1.4830    -0.9150 nu         1 LK7      -0.761200
      8 C6           0.4280    -1.2480    -0.4330 ce         1 LK7       0.079800
      9 C7           1.3080    -2.4760    -0.0820 c          1 LK7       0.724200
     10 O2           2.4490    -2.3180     0.3360 o          1 LK7      -0.716500
     11 O3           0.8290    -3.5970    -0.2360 o          1 LK7      -0.716500
     12 C8           0.7410     0.0570    -0.2770 c2         1 LK7      -0.254400
     13 C9          -0.4530     0.8800    -0.7080 c5         1 LK7      -0.011500
     14 C10         -0.7160     2.1010     0.2210 c6         1 LK7      -0.059400
     15 C11          0.5960     2.8760     0.4950 c6         1 LK7      -0.061400
     16 C12          1.6600     1.9430     1.1330 c6         1 LK7      -0.102400
     17 C13          2.0160     0.7280     0.2230 c6         1 LK7       0.255500
     18 O4           2.7930     1.1230    -0.9310 os         1 LK7      -0.457000
     19 C14          4.1340     1.5890    -0.7010 c3         1 LK7       0.156900
     20 H11         -5.6060     1.0520    -1.2740 hc         1 LK7       0.039700
     21 H12         -4.0000     1.5980    -1.7830 hc         1 LK7       0.039700
     22 H13A        -4.5330    -0.0550    -2.1460 hc         1 LK7       0.039700
     23 H2          -4.7040     0.2680     0.7440 ha         1 LK7       0.152000
     24 H4          -3.1520    -0.5450     2.2640 h4         1 LK7      -0.044800
     25 H5          -2.0400    -0.0090    -1.9460 h1         1 LK7       0.044700
     26 HN1         -1.3410    -2.3590    -0.6450 hn         1 LK7       0.470000
     27 H9          -0.2030     1.3380    -1.6720 hc         1 LK7       0.048700
     28 H101        -1.4600     2.7660    -0.2380 hc         1 LK7       0.021200
     29 H102        -1.1330     1.7840     1.1850 hc         1 LK7       0.021200
     30 H111         0.9830     3.3060    -0.4390 hc         1 LK7       0.022700
     31 H112         0.3920     3.7200     1.1680 hc         1 LK7       0.022700
     32 H121         2.5580     2.5170     1.3950 hc         1 LK7       0.032700
     33 H122         1.2700     1.5620     2.0870 hc         1 LK7       0.032700
     34 H13          2.6130     0.0270     0.8220 h1         1 LK7       0.086700
     35 H141         4.1350     2.5460    -0.1640 h1         1 LK7       0.008700
     36 H142         4.7060     0.8570    -0.1160 h1         1 LK7       0.008700
     37 H143         4.6500     1.7410    -1.6570 h1         1 LK7       0.008700
@<TRIPOS>BOND
     1     1     2 1   
     2     1    20 1   
     3     1    21 1   
     4     1    22 1   
     5     2     3 2   
     6     2    23 1   
     7     3     4 1   
     8     3     6 1   
     9     4     5 2   
    10     4    24 1   
    11     6     7 1   
    12     6    13 1   
    13     6    25 1   
    14     7     8 1   
    15     7    26 1   
    16     8     9 1   
    17     8    12 2   
    18     9    10 1   
    19     9    11 1   
    20    12    13 1   
    21    12    17 1   
    22    13    14 1   
    23    13    27 1   
    24    14    15 1   
    25    14    28 1   
    26    14    29 1   
    27    15    16 1   
    28    15    30 1   
    29    15    31 1   
    30    16    17 1   
    31    16    32 1   
    32    16    33 1   
    33    17    18 1   
    34    17    34 1   
    35    18    19 1   
    36    19    35 1   
    37    19    36 1   
    38    19    37 1   
@<TRIPOS>SUBSTRUCTURE
     1 LK7         1 TEMP              0 ****  ****    0 ROOT
