@<TRIPOS>MOLECULE
LK8
   58    61     1     0     0
SMALL
abcg2


@<TRIPOS>ATOM
      1 C3          14.4350   -22.9450    13.6280 ca         1 LK8       0.247000
      2 C5          13.2600   -22.4450    11.5660 ca         1 LK8      -0.215000
      3 C7          13.2880   -23.2500    15.7190 ca         1 LK8      -0.159300
      4 C11         12.0490   -23.3010    16.5670 c3         1 LK8       0.357300
      5 C8          14.5050   -23.4570    16.2950 ca         1 LK8      -0.096000
      6 O34         21.6220   -26.0930     5.4240 o          1 LK8      -0.596100
      7 C33         20.8450   -25.8850     6.3440 c          1 LK8       0.605100
      8 N35         19.5230   -26.0520     6.2380 ns         1 LK8      -0.497900
      9 C36         18.8910   -26.4640     5.0070 c3         1 LK8       0.096300
     10 C32         21.3670   -25.5070     7.7220 c5         1 LK8       0.019700
     11 C31         21.5810   -26.7430     8.6060 c5         1 LK8      -0.083400
     12 C30         21.3940   -26.2000    10.0180 c5         1 LK8      -0.098400
     13 C29         20.2400   -25.2210     9.8570 c5         1 LK8       0.102000
     14 N28         20.4610   -24.6830     8.5130 n          1 LK8      -0.415800
     15 O27         20.5050   -23.0140     7.0050 o          1 LK8      -0.565100
     16 C20         19.3240   -22.6020     9.0090 ca         1 LK8      -0.141600
     17 C19         17.9700   -22.8080     9.2380 ca         1 LK8       0.172000
     18 CL1         17.2030   -24.1530     8.4570 cl         1 LK8      -0.191000
     19 C21         19.9440   -21.5130     9.6060 ca         1 LK8      -0.051000
     20 C22         19.2380   -20.6680    10.4410 ca         1 LK8      -0.110000
     21 C23         17.8920   -20.9050    10.6570 ca         1 LK8       0.159000
     22 CL2         17.0340   -19.8290    11.7010 cl         1 LK8      -0.172000
     23 C18         17.2160   -21.9660    10.0550 ca         1 LK8      -0.081300
     24 C17         15.7550   -22.1730    10.3240 c3         1 LK8       0.202900
     25 C4          14.4430   -22.6650    12.2270 ca         1 LK8       0.180100
     26 C6          12.0450   -22.4930    12.2720 ca         1 LK8      -0.051000
     27 C1          11.9990   -22.7510    13.6130 ca         1 LK8      -0.137000
     28 N10         15.6280   -23.1590    14.2200 nb         1 LK8      -0.618000
     29 C9          15.6770   -23.4060    15.4990 ca         1 LK8       0.347300
     30 C2          13.2010   -22.9820    14.3230 ca         1 LK8      -0.011000
     31 F14         11.3860   -22.1380    16.5380 f          1 LK8      -0.110333
     32 F12         12.3170   -23.5620    17.8460 f          1 LK8      -0.110333
     33 F13         11.2010   -24.2490    16.1460 f          1 LK8      -0.110333
     34 H1          13.2340   -22.2440    10.5040 ha         1 LK8       0.124000
     35 H2          17.8060   -23.5830    15.4040 hc         1 LK8       0.055367
     36 H3          17.1990   -22.9030    16.9200 hc         1 LK8       0.055367
     37 H4          17.0410   -24.6230    16.6160 hc         1 LK8       0.055367
     38 H5          14.6080   -23.6590    17.3520 ha         1 LK8       0.140000
     39 H6          18.9400   -25.8550     7.0330 hn         1 LK8       0.320500
     40 H7          17.8230   -26.5610     5.1830 h1         1 LK8       0.040033
     41 H8          19.0420   -25.7330     4.2120 h1         1 LK8       0.040033
     42 H9          19.2700   -27.4270     4.6660 h1         1 LK8       0.040033
     43 H10         22.3140   -24.9790     7.5720 h1         1 LK8       0.091700
     44 H11         20.8200   -27.4980     8.3950 hc         1 LK8       0.064200
     45 H12         22.5570   -27.1930     8.4370 hc         1 LK8       0.064200
     46 H13         21.1770   -26.9780    10.7470 hc         1 LK8       0.059200
     47 H14         22.2910   -25.6700    10.3450 hc         1 LK8       0.059200
     48 H15         20.2470   -24.4310    10.6050 h1         1 LK8       0.056700
     49 H16         19.2780   -25.7370     9.9110 h1         1 LK8       0.056700
     50 H17         20.9960   -21.3300     9.4290 ha         1 LK8       0.136000
     51 H18         19.7310   -19.8310    10.9160 ha         1 LK8       0.141000
     52 H19         15.2210   -21.2250    10.2030 h1         1 LK8       0.058700
     53 H20         15.3120   -22.8850     9.6260 h1         1 LK8       0.058700
     54 H21         11.1250   -22.3180    11.7300 ha         1 LK8       0.119000
     55 H22         11.0370   -22.7770    14.1020 ha         1 LK8       0.130000
     56 C15         17.0080   -23.6420    16.1400 c3         1 LK8      -0.146400
     57 O16         15.6550   -22.6410    11.6570 os         1 LK8      -0.303100
     58 C26         20.1370   -23.4550     8.0810 c          1 LK8       0.614700
@<TRIPOS>BOND
     1     1    25 ar  
     2     1    28 ar  
     3     1    30 ar  
     4     2    25 ar  
     5     2    26 ar  
     6     2    34 1   
     7     3     4 1   
     8     3     5 ar  
     9     3    30 ar  
    10     4    31 1   
    11     4    32 1   
    12     4    33 1   
    13     5    29 ar  
    14     5    38 1   
    15     6     7 2   
    16     7     8 1   
    17     7    10 1   
    18     8     9 1   
    19     8    39 1   
    20     9    40 1   
    21     9    41 1   
    22     9    42 1   
    23    10    11 1   
    24    10    14 1   
    25    10    43 1   
    26    11    12 1   
    27    11    44 1   
    28    11    45 1   
    29    12    13 1   
    30    12    46 1   
    31    12    47 1   
    32    13    14 1   
    33    13    48 1   
    34    13    49 1   
    35    14    58 1   
    36    15    58 2   
    37    16    17 ar  
    38    16    19 ar  
    39    16    58 1   
    40    17    18 1   
    41    17    23 ar  
    42    19    20 ar  
    43    19    50 1   
    44    20    21 ar  
    45    20    51 1   
    46    21    22 1   
    47    21    23 ar  
    48    23    24 1   
    49    24    52 1   
    50    24    53 1   
    51    24    57 1   
    52    25    57 1   
    53    26    27 ar  
    54    26    54 1   
    55    27    30 ar  
    56    27    55 1   
    57    28    29 ar  
    58    29    56 1   
    59    35    56 1   
    60    36    56 1   
    61    37    56 1   
@<TRIPOS>SUBSTRUCTURE
     1 LK8         1 TEMP              0 ****  ****    0 ROOT
