@<TRIPOS>MOLECULE
LK8
   58    61     1     0     0
SMALL
No Charge or Current Charge


@<TRIPOS>ATOM
      1 C3          14.8790   -23.0710    13.0830 ca         1 LK8       0.247000
      2 C5          13.5020   -21.7030    11.5690 ca         1 LK8      -0.215000
      3 C7          13.8030   -24.3510    14.8930 ca         1 LK8      -0.159300
      4 C11         12.5860   -24.8270    15.7120 c3         1 LK8       0.357300
      5 C8          15.0980   -24.8030    15.2330 ca         1 LK8      -0.096000
      6 O34         20.7340   -27.4720     6.9860 o          1 LK8      -0.596100
      7 C33         20.1880   -26.5870     7.6330 c          1 LK8       0.605100
      8 N35         18.9000   -26.1660     7.3840 ns         1 LK8      -0.497900
      9 C36         18.0300   -26.7210     6.3470 c3         1 LK8       0.096300
     10 C32         20.8270   -25.7490     8.7910 c5         1 LK8       0.019700
     11 C31         20.6700   -26.5490    10.1160 c5         1 LK8      -0.083400
     12 C30         20.8880   -25.4400    11.1740 c5         1 LK8      -0.098400
     13 C29         20.0060   -24.2920    10.6210 c5         1 LK8       0.102000
     14 N28         20.1730   -24.4540     9.1560 n          1 LK8      -0.415800
     15 O27         20.6430   -23.4160     7.1610 o          1 LK8      -0.565100
     16 C20         19.3720   -22.1330     8.7050 ca         1 LK8      -0.141600
     17 C19         18.0140   -22.1880     9.0950 ca         1 LK8       0.172000
     18 Cl1         17.1070   -23.7020     8.9260 cl         1 LK8      -0.191000
     19 C21         20.0480   -20.8990     8.7160 ca         1 LK8      -0.051000
     20 C22         19.3970   -19.7430     9.1680 ca         1 LK8      -0.110000
     21 C23         18.0660   -19.8030     9.6060 ca         1 LK8       0.159000
     22 Cl2         17.3280   -18.3130    10.1980 cl         1 LK8      -0.172000
     23 C18         17.3550   -21.0250     9.5620 ca         1 LK8      -0.081300
     24 C17         15.9070   -21.1180    10.0450 c3         1 LK8       0.202900
     25 C4          14.7640   -22.1860    11.9730 ca         1 LK8       0.180100
     26 C6          12.3490   -22.0900    12.2610 ca         1 LK8      -0.051000
     27 C1          12.4430   -22.9580    13.3560 ca         1 LK8      -0.137000
     28 N10         16.1060   -23.5320    13.4500 nb         1 LK8      -0.618000
     29 C9          16.2090   -24.3770    14.4910 ca         1 LK8       0.347300
     30 C2          13.6960   -23.4620    13.7820 ca         1 LK8      -0.011000
     31 F14         11.9280   -23.7920    16.2830 f          1 LK8      -0.110333
     32 F12         12.9230   -25.6630    16.7210 f          1 LK8      -0.110333
     33 F13         11.6960   -25.4990    14.9470 f          1 LK8      -0.110333
     34 H1          13.3960   -21.0250    10.7270 ha         1 LK8       0.124000
     35 H2          18.2590   -24.8600    13.9500 hc         1 LK8       0.055367
     36 H3          18.0680   -24.1890    15.5800 hc         1 LK8       0.055367
     37 H4          17.5960   -25.8640    15.2450 hc         1 LK8       0.055367
     38 H5          15.2610   -25.4820    16.0650 ha         1 LK8       0.140000
     39 H6          18.5460   -25.4260     7.9780 hn         1 LK8       0.320500
     40 H7          17.0600   -26.2080     6.3710 h1         1 LK8       0.040033
     41 H8          18.4920   -26.5770     5.3620 h1         1 LK8       0.040033
     42 H9          17.8780   -27.7930     6.5270 h1         1 LK8       0.040033
     43 H10         21.8850   -25.5880     8.5440 h1         1 LK8       0.091700
     44 H11         19.6690   -26.9880    10.2100 hc         1 LK8       0.064200
     45 H12         21.3960   -27.3660    10.2020 hc         1 LK8       0.064200
     46 H13         20.5900   -25.7470    12.1820 hc         1 LK8       0.059200
     47 H14         21.9420   -25.1390    11.2200 hc         1 LK8       0.059200
     48 H15         20.3450   -23.3110    10.9800 h1         1 LK8       0.056700
     49 H16         18.9570   -24.4260    10.9140 h1         1 LK8       0.056700
     50 H17         21.0880   -20.8410     8.3970 ha         1 LK8       0.136000
     51 H18         19.9310   -18.7960     9.1940 ha         1 LK8       0.141000
     52 H19         15.4560   -20.1260    10.1580 h1         1 LK8       0.058700
     53 H20         15.3080   -21.6630     9.3050 h1         1 LK8       0.058700
     54 H21         11.3760   -21.7140    11.9490 ha         1 LK8       0.119000
     55 H22         11.5200   -23.2290    13.8590 ha         1 LK8       0.130000
     56 C15         17.6100   -24.8480    14.8340 c3         1 LK8      -0.146400
     57 O16         15.9190   -21.8150    11.3020 os         1 LK8      -0.303100
     58 C26         20.1230   -23.3570     8.2670 c          1 LK8       0.614700
@<TRIPOS>BOND
     1     1    25 ar  
     2     1    28 ar  
     3     1    30 ar  
     4     2    25 ar  
     5     2    26 ar  
     6     2    34 1   
     7     3     4 1   
     8     3     5 ar  
     9     3    30 ar  
    10     4    31 1   
    11     4    32 1   
    12     4    33 1   
    13     5    29 ar  
    14     5    38 1   
    15     6     7 2   
    16     7     8 1   
    17     7    10 1   
    18     8     9 1   
    19     8    39 1   
    20     9    40 1   
    21     9    41 1   
    22     9    42 1   
    23    10    11 1   
    24    10    14 1   
    25    10    43 1   
    26    11    12 1   
    27    11    44 1   
    28    11    45 1   
    29    12    13 1   
    30    12    46 1   
    31    12    47 1   
    32    13    14 1   
    33    13    48 1   
    34    13    49 1   
    35    14    58 1   
    36    15    58 2   
    37    16    17 ar  
    38    16    19 ar  
    39    16    58 1   
    40    17    18 1   
    41    17    23 ar  
    42    19    20 ar  
    43    19    50 1   
    44    20    21 ar  
    45    20    51 1   
    46    21    22 1   
    47    21    23 ar  
    48    23    24 1   
    49    24    52 1   
    50    24    53 1   
    51    24    57 1   
    52    25    57 1   
    53    26    27 ar  
    54    26    54 1   
    55    27    30 ar  
    56    27    55 1   
    57    28    29 ar  
    58    29    56 1   
    59    35    56 1   
    60    36    56 1   
    61    37    56 1   
@<TRIPOS>SUBSTRUCTURE
     1 LK8         1 TEMP              0 ****  ****    0 ROOT
