@<TRIPOS>MOLECULE
LK9
   38    41     1     0     0
SMALL
bcc


@<TRIPOS>ATOM
      1 N1          -0.9720   -27.1150     2.2070 nb         1 LK9      -0.732000
      2 C2          -2.2750   -26.1140     0.4670 ca         1 LK9      -0.168300
      3 C4          -1.9860   -26.8490    -1.8320 ca         1 LK9      -0.006000
      4 C5          -2.3600   -26.7620    -3.1850 ca         1 LK9      -0.224000
      5 C6          -1.7560   -27.5600    -4.1300 ca         1 LK9       0.145100
      6 C7          -0.7500   -28.4650    -3.7380 ca         1 LK9      -0.154000
      7 C8          -0.3750   -28.5560    -2.4220 ca         1 LK9      -0.067000
      8 C9          -0.9830   -27.7590    -1.4360 ca         1 LK9      -0.096300
      9 C10         -0.6270   -27.8400    -0.0470 ca         1 LK9       0.272300
     10 C11          0.6430   -28.7780     1.6130 ca         1 LK9       0.278300
     11 C12          1.7350   -29.7210     2.0250 c3         1 LK9      -0.080400
     12 C14          3.5300   -27.9520     1.8990 ca         1 LK9      -0.122000
     13 C15          4.6500   -27.3080     2.4080 ca         1 LK9      -0.125000
     14 C16          5.2070   -27.7210     3.6120 ca         1 LK9      -0.126000
     15 C17          4.6390   -28.7840     4.3000 ca         1 LK9      -0.125000
     16 C18          3.5170   -29.4240     3.7890 ca         1 LK9      -0.122000
     17 C           -0.0480   -27.9670     2.5810 ca         1 LK9       0.572900
     18 O           -2.0730   -27.5340    -5.4390 oh         1 LK9      -0.493100
     19 C1          -1.2720   -27.0320     0.8980 ca         1 LK9       0.351300
     20 C13          2.9490   -29.0160     2.5860 ca         1 LK9      -0.081300
     21 C3          -2.6140   -26.0300    -0.8430 ca         1 LK9      -0.106000
     22 N2           0.3330   -28.6990     0.3510 nb         1 LK9      -0.624000
     23 H2          -2.7590   -25.4930     1.2100 ha         1 LK9       0.149000
     24 H4          -3.1350   -26.0590    -3.4730 ha         1 LK9       0.132000
     25 H6          -0.2760   -29.0900    -4.4850 ha         1 LK9       0.148000
     26 H7           0.3990   -29.2560    -2.1360 ha         1 LK9       0.154000
     27 H9           1.3580   -30.4410     2.7590 hc         1 LK9       0.065200
     28 H8           2.0170   -30.2990     1.1430 hc         1 LK9       0.065200
     29 H10          3.1060   -27.6220     0.9580 ha         1 LK9       0.130500
     30 H11          5.0880   -26.4820     1.8620 ha         1 LK9       0.130500
     31 H12          6.0780   -27.2170     4.0100 ha         1 LK9       0.131000
     32 H13          5.0650   -29.1130     5.2390 ha         1 LK9       0.130500
     33 H14          3.0770   -30.2510     4.3360 ha         1 LK9       0.130500
     34 H1          -0.3670   -27.5900     4.5370 hn         1 LK9       0.425300
     35 H            0.7230   -28.8570     4.2600 hn         1 LK9       0.425300
     36 H5          -2.7760   -26.8960    -5.6060 ho         1 LK9       0.426000
     37 H3          -3.3800   -25.3330    -1.1610 ha         1 LK9       0.134000
     38 N            0.2710   -28.0350     3.8960 nv         1 LK9      -0.941500
@<TRIPOS>BOND
     1     1    17 ar  
     2     1    19 ar  
     3     2    19 ar  
     4     2    21 ar  
     5     2    23 1   
     6     3     4 ar  
     7     3     8 ar  
     8     3    21 ar  
     9     4     5 ar  
    10     4    24 1   
    11     5     6 ar  
    12     5    18 1   
    13     6     7 ar  
    14     6    25 1   
    15     7     8 ar  
    16     7    26 1   
    17     8     9 ar  
    18     9    19 ar  
    19     9    22 ar  
    20    10    11 1   
    21    10    17 ar  
    22    10    22 ar  
    23    11    20 1   
    24    11    27 1   
    25    11    28 1   
    26    12    13 ar  
    27    12    20 ar  
    28    12    29 1   
    29    13    14 ar  
    30    13    30 1   
    31    14    15 ar  
    32    14    31 1   
    33    15    16 ar  
    34    15    32 1   
    35    16    20 ar  
    36    16    33 1   
    37    17    38 1   
    38    18    36 1   
    39    21    37 1   
    40    34    38 1   
    41    35    38 1   
@<TRIPOS>SUBSTRUCTURE
     1 LK9         1 TEMP              0 ****  ****    0 ROOT
