@<TRIPOS>MOLECULE
LK9
   38    41     1     0     0
SMALL
No Charge or Current Charge


@<TRIPOS>ATOM
      1 N1          -1.1430   -27.2430     2.3080 nb         1 LK9      -0.732000
      2 C2          -2.4080   -26.2810     0.5400 ca         1 LK9      -0.085000
      3 C4          -1.9900   -26.8600    -1.7830 ca         1 LK9      -0.006000
      4 C5          -2.3090   -26.7000    -3.1450 ca         1 LK9      -0.206000
      5 C6          -1.6030   -27.4140    -4.1230 ca         1 LK9       0.145100
      6 C7          -0.5770   -28.2890    -3.7450 ca         1 LK9      -0.136000
      7 C8          -0.2530   -28.4550    -2.3880 ca         1 LK9      -0.049000
      8 C9          -0.9560   -27.7420    -1.3860 ca         1 LK9      -0.031000
      9 C10         -0.6390   -27.8990    -0.0080 ca         1 LK9       0.207000
     10 C11          0.6010   -28.8400     1.7170 ca         1 LK9       0.278300
     11 C12          1.7170   -29.7940     2.1390 c3         1 LK9      -0.080400
     12 C14          3.6650   -28.2340     1.6560 ca         1 LK9      -0.104000
     13 C15          4.8290   -27.5500     2.0470 ca         1 LK9      -0.107000
     14 C16          5.3180   -27.6870     3.3570 ca         1 LK9      -0.108000
     15 C17          4.6430   -28.5100     4.2740 ca         1 LK9      -0.107000
     16 C18          3.4780   -29.1930     3.8830 ca         1 LK9      -0.104000
     17 C           -0.1610   -28.0740     2.6630 ca         1 LK9       0.572900
     18 O           -1.9100   -27.2590    -5.4410 oh         1 LK9      -0.532100
     19 C1          -1.3880   -27.1460     0.9710 ca         1 LK9       0.286000
     20 C13          2.9800   -29.0570     2.5720 ca         1 LK9      -0.081300
     21 C3          -2.7090   -26.1360    -0.8210 ca         1 LK9      -0.088000
     22 N2           0.3570   -28.7500     0.3810 nb         1 LK9      -0.624000
     23 H2          -2.9720   -25.7140     1.2750 ha         1 LK9       0.131000
     24 H4          -3.1050   -26.0190    -3.4380 ha         1 LK9       0.114000
     25 H6          -0.0300   -28.8420    -4.5050 ha         1 LK9       0.130000
     26 H7           0.5480   -29.1420    -2.1260 ha         1 LK9       0.136000
     27 H9           1.3540   -30.4430     2.9440 hc         1 LK9       0.065200
     28 H8           1.9640   -30.4730     1.3130 hc         1 LK9       0.065200
     29 H10          3.2950   -28.1230     0.6390 ha         1 LK9       0.112500
     30 H11          5.3520   -26.9150     1.3350 ha         1 LK9       0.112500
     31 H12          6.2190   -27.1580     3.6610 ha         1 LK9       0.113000
     32 H13          5.0220   -28.6180     5.2880 ha         1 LK9       0.112500
     33 H14          2.9670   -29.8300     4.6020 ha         1 LK9       0.112500
     34 H1          -0.8080   -27.6450     4.5180 hn         1 LK9       0.480500
     35 H            0.4420   -28.8420     4.4620 hn         1 LK9       0.480500
     36 H5          -2.6460   -26.6130    -5.5120 ho         1 LK9       0.465000
     37 H3          -3.5040   -25.4590    -1.1240 ha         1 LK9       0.116000
     38 N           -0.0400   -28.0720     4.0120 nv         1 LK9      -1.051900
@<TRIPOS>BOND
     1     1    17 ar  
     2     1    19 ar  
     3     2    19 ar  
     4     2    21 ar  
     5     2    23 1   
     6     3     4 ar  
     7     3     8 ar  
     8     3    21 ar  
     9     4     5 ar  
    10     4    24 1   
    11     5     6 ar  
    12     5    18 1   
    13     6     7 ar  
    14     6    25 1   
    15     7     8 ar  
    16     7    26 1   
    17     8     9 ar  
    18     9    19 ar  
    19     9    22 ar  
    20    10    11 1   
    21    10    17 ar  
    22    10    22 ar  
    23    11    20 1   
    24    11    27 1   
    25    11    28 1   
    26    12    13 ar  
    27    12    20 ar  
    28    12    29 1   
    29    13    14 ar  
    30    13    30 1   
    31    14    15 ar  
    32    14    31 1   
    33    15    16 ar  
    34    15    32 1   
    35    16    20 ar  
    36    16    33 1   
    37    17    38 1   
    38    18    36 1   
    39    21    37 1   
    40    34    38 1   
    41    35    38 1   
@<TRIPOS>SUBSTRUCTURE
     1 LK9         1 TEMP              0 ****  ****    0 ROOT
