@<TRIPOS>MOLECULE
LKA
   25    25     1     0     0
SMALL
bcc


@<TRIPOS>ATOM
      1 C5           1.0560     0.1930     0.5810 c6         1 LKA       0.039400
      2 S0           0.3880     1.6380    -0.3030 ss         1 LKA      -0.286200
      3 C1          -1.3770     1.3850     0.0340 c6         1 LKA       0.202600
      4 N1          -1.6590     1.5380     1.4440 n8         1 LKA      -0.890800
      5 C2          -1.8280     0.0010    -0.4470 c6         1 LKA       0.137100
      6 O2          -1.6630    -0.1500    -1.8310 oh         1 LKA      -0.559800
      7 C3          -1.0680    -1.1210     0.2560 c6         1 LKA       0.115100
      8 O3          -1.5160    -2.3880    -0.1850 oh         1 LKA      -0.590800
      9 C4           0.4460    -1.0890     0.0210 c6         1 LKA       0.163100
     10 O4           1.0500    -2.1740     0.6920 oh         1 LKA      -0.606800
     11 C6           2.5700     0.2480     0.5030 c3         1 LKA       0.155400
     12 O6           2.9710     0.2110    -0.8460 oh         1 LKA      -0.588800
     13 H5           0.7820     0.2890     1.6360 h1         1 LKA       0.086700
     14 H1          -1.8710     2.1420    -0.5930 h2         1 LKA       0.047700
     15 HN11        -1.4320     2.4800     1.7350 hn         1 LKA       0.350300
     16 HN12        -2.6540     1.4230     1.6030 hn         1 LKA       0.350300
     17 H2          -2.8920    -0.0980    -0.1710 h1         1 LKA       0.023700
     18 HO2         -2.1330     0.5620    -2.2760 ho         1 LKA       0.402000
     19 H3          -1.2370    -1.0080     1.3340 h1         1 LKA       0.058700
     20 HO3         -2.3020    -2.6300     0.3140 ho         1 LKA       0.406000
     21 H4           0.6480    -1.1400    -1.0570 h1         1 LKA       0.090700
     22 HO4          0.5280    -2.9590     0.4890 ho         1 LKA       0.422000
     23 H61          2.9090     1.1660     1.0000 h1         1 LKA       0.034700
     24 H62          2.9780    -0.5920     1.0750 h1         1 LKA       0.034700
     25 HO6          3.9310     0.1930    -0.8720 ho         1 LKA       0.403000
@<TRIPOS>BOND
     1     1     2 1   
     2     1     9 1   
     3     1    11 1   
     4     1    13 1   
     5     2     3 1   
     6     3     4 1   
     7     3     5 1   
     8     3    14 1   
     9     4    15 1   
    10     4    16 1   
    11     5     6 1   
    12     5     7 1   
    13     5    17 1   
    14     6    18 1   
    15     7     8 1   
    16     7     9 1   
    17     7    19 1   
    18     8    20 1   
    19     9    10 1   
    20     9    21 1   
    21    10    22 1   
    22    11    12 1   
    23    11    23 1   
    24    11    24 1   
    25    12    25 1   
@<TRIPOS>SUBSTRUCTURE
     1 LKA         1 TEMP              0 ****  ****    0 ROOT
