@<TRIPOS>MOLECULE
LKA
   25    25     1     0     0
SMALL
No Charge or Current Charge


@<TRIPOS>ATOM
      1 C5           1.0910     0.2180     0.5920 c6         1 LKA       0.087300
      2 S0           0.3370     1.7060    -0.2380 ss         1 LKA      -0.382000
      3 C1          -1.4320     1.3660     0.0980 c6         1 LKA       0.250500
      4 N1          -1.6970     1.6380     1.5190 n8         1 LKA      -1.001200
      5 C2          -1.8900    -0.0740    -0.3350 c6         1 LKA       0.160300
      6 O2          -1.8100    -0.2630    -1.7660 oh         1 LKA      -0.682000
      7 C3          -1.0800    -1.1910     0.3940 c6         1 LKA       0.138300
      8 O3          -1.5800    -2.4840    -0.0110 oh         1 LKA      -0.653000
      9 C4           0.4560    -1.1260     0.1190 c6         1 LKA       0.186300
     10 O4           1.0680    -2.2550     0.7780 oh         1 LKA      -0.729000
     11 C6           2.6420     0.2530     0.4130 c3         1 LKA       0.178600
     12 O6           3.0610     0.1300    -0.9590 oh         1 LKA      -0.651000
     13 H5           0.8880     0.3270     1.6670 h1         1 LKA       0.086700
     14 H1          -2.0060     2.1180    -0.4640 h2         1 LKA       0.047700
     15 HN11        -1.4130     2.6040     1.7140 hn         1 LKA       0.405500
     16 HN12        -2.7120     1.6510     1.6690 hn         1 LKA       0.405500
     17 H2          -2.9420    -0.1810    -0.0300 h1         1 LKA       0.023700
     18 HO2         -2.3690     0.4320    -2.1840 ho         1 LKA       0.501000
     19 H3          -1.2330    -1.0670     1.4770 h1         1 LKA       0.058700
     20 HO3         -1.8820    -2.3540    -0.9410 ho         1 LKA       0.445000
     21 H4           0.6100    -1.2010    -0.9690 h1         1 LKA       0.090700
     22 HO4          0.3840    -2.9660     0.7120 ho         1 LKA       0.521000
     23 H61          3.0080     1.2010     0.8320 h1         1 LKA       0.034700
     24 H62          3.0840    -0.5520     1.0160 h1         1 LKA       0.034700
     25 HO6          4.0420     0.1900    -0.9650 ho         1 LKA       0.442000
@<TRIPOS>BOND
     1     1     2 1   
     2     1     9 1   
     3     1    11 1   
     4     1    13 1   
     5     2     3 1   
     6     3     4 1   
     7     3     5 1   
     8     3    14 1   
     9     4    15 1   
    10     4    16 1   
    11     5     6 1   
    12     5     7 1   
    13     5    17 1   
    14     6    18 1   
    15     7     8 1   
    16     7     9 1   
    17     7    19 1   
    18     8    20 1   
    19     9    10 1   
    20     9    21 1   
    21    10    22 1   
    22    11    12 1   
    23    11    23 1   
    24    11    24 1   
    25    12    25 1   
@<TRIPOS>SUBSTRUCTURE
     1 LKA         1 TEMP              0 ****  ****    0 ROOT
