@<TRIPOS>MOLECULE
LKB
   39    42     1     0     0
SMALL
No Charge or Current Charge


@<TRIPOS>ATOM
      1 N4         -16.3940     5.4760   -26.2900 n1         1 LKB      -0.450000
      2 C19        -16.7490     4.3630   -26.2900 cg         1 LKB       0.322000
      3 C16        -17.1960     2.9970   -26.2970 ca         1 LKB      -0.020000
      4 C15        -17.7090     2.4130   -25.1250 ca         1 LKB      -0.068500
      5 C14        -18.1450     1.0760   -25.1330 ca         1 LKB      -0.111500
      6 C17        -17.1230     2.2330   -27.4770 ca         1 LKB      -0.068500
      7 C18        -17.5620     0.8970   -27.4820 ca         1 LKB      -0.111500
      8 C13        -18.0820     0.2900   -26.3110 cp         1 LKB       0.005000
      9 C10        -18.5470    -1.1330   -26.3180 cp         1 LKB      -0.135000
     10 C9         -18.4240    -1.9630   -25.1640 ca         1 LKB       0.379900
     11 N3         -18.8240    -3.2610   -25.1030 nb         1 LKB      -0.677000
     12 C11        -19.1290    -1.7170   -27.4730 ca         1 LKB      -0.011000
     13 C12        -19.5300    -3.0540   -27.3730 ca         1 LKB      -0.167800
     14 C8         -19.3700    -3.7780   -26.2160 ca         1 LKB       0.386500
     15 N2         -19.8640    -5.0480   -26.4460 na         1 LKB      -0.317400
     16 C7         -20.3600    -5.1860   -27.7640 cc         1 LKB      -0.154100
     17 C6         -20.1460    -3.9390   -28.3250 cd         1 LKB       0.005400
     18 N1         -20.4620    -3.5500   -29.6180 ns         1 LKB      -0.381100
     19 C5         -21.0500    -4.2840   -30.6340 c          1 LKB       0.620700
     20 O          -21.3840    -5.4530   -30.4960 o          1 LKB      -0.588100
     21 C2         -21.2600    -3.5600   -31.9360 ca         1 LKB      -0.208600
     22 C1         -20.8930    -2.2100   -32.1480 ca         1 LKB      -0.050000
     23 C3         -21.8550    -4.2620   -33.0030 ca         1 LKB       0.390900
     24 N          -22.0920    -3.7120   -34.2190 nb         1 LKB      -0.667000
     25 C4         -21.7370    -2.4220   -34.4100 ca         1 LKB       0.359900
     26 C          -21.1400    -1.6430   -33.4090 ca         1 LKB      -0.172000
     27 H10        -17.7740     2.9930   -24.2060 ha         1 LKB       0.127000
     28 H9         -18.5500     0.6540   -24.2160 ha         1 LKB       0.120500
     29 H11        -16.7250     2.6710   -28.3900 ha         1 LKB       0.127000
     30 H12        -17.4810     0.3250   -28.4020 ha         1 LKB       0.120500
     31 H7         -17.9730    -1.5730   -24.2530 h4         1 LKB       0.024100
     32 H8         -19.2730    -1.1520   -28.3900 ha         1 LKB       0.115000
     33 H6         -19.8590    -5.7750   -25.7410 hn         1 LKB       0.368000
     34 H5         -20.7950    -6.1010   -28.1580 h4         1 LKB       0.248000
     35 H4         -20.2440    -2.6010   -29.8860 hn         1 LKB       0.325500
     36 H1         -20.4290    -1.6010   -31.3760 ha         1 LKB       0.118000
     37 H2         -22.1570    -5.3030   -32.8940 h4         1 LKB       0.042100
     38 H3         -21.9380    -2.0030   -35.3950 h4         1 LKB       0.024100
     39 H          -20.8730    -0.6100   -33.6140 ha         1 LKB       0.129000
@<TRIPOS>BOND
     1     1     2 3   
     2     2     3 1   
     3     3     4 ar  
     4     3     6 ar  
     5     4     5 ar  
     6     4    27 1   
     7     5     8 ar  
     8     5    28 1   
     9     6     7 ar  
    10     6    29 1   
    11     7     8 ar  
    12     7    30 1   
    13     8     9 1   
    14     9    10 ar  
    15     9    12 ar  
    16    10    11 ar  
    17    10    31 1   
    18    11    14 ar  
    19    12    13 ar  
    20    12    32 1   
    21    13    14 ar  
    22    13    17 1   
    23    14    15 1   
    24    15    16 1   
    25    15    33 1   
    26    16    17 2   
    27    16    34 1   
    28    17    18 1   
    29    18    19 1   
    30    18    35 1   
    31    19    20 2   
    32    19    21 1   
    33    21    22 ar  
    34    21    23 ar  
    35    22    26 ar  
    36    22    36 1   
    37    23    24 ar  
    38    23    37 1   
    39    24    25 ar  
    40    25    26 ar  
    41    25    38 1   
    42    26    39 1   
@<TRIPOS>SUBSTRUCTURE
     1 LKB         1 TEMP              0 ****  ****    0 ROOT
