@<TRIPOS>MOLECULE
LKB
   39    42     1     0     0
SMALL
abcg2


@<TRIPOS>ATOM
      1 N4         -16.4030     5.4100   -25.9730 n1         1 LKB      -0.450000
      2 C19        -16.7660     4.3170   -26.0350 cg         1 LKB       0.322000
      3 C16        -17.2120     2.9650   -26.1090 ca         1 LKB      -0.020000
      4 C15        -17.7500     2.3460   -24.9810 ca         1 LKB      -0.068500
      5 C14        -18.1840     1.0370   -25.0590 ca         1 LKB      -0.111500
      6 C17        -17.1100     2.2630   -27.3100 ca         1 LKB      -0.068500
      7 C18        -17.5400     0.9510   -27.3720 ca         1 LKB      -0.111500
      8 C13        -18.0850     0.3160   -26.2530 cp         1 LKB       0.005000
      9 C10        -18.5430    -1.0800   -26.3320 cp         1 LKB      -0.135000
     10 C9         -18.3690    -1.9460   -25.2330 ca         1 LKB       0.379900
     11 N3         -18.7400    -3.2120   -25.2070 nb         1 LKB      -0.677000
     12 C11        -19.1440    -1.5800   -27.4820 ca         1 LKB      -0.011000
     13 C12        -19.5470    -2.9090   -27.4850 ca         1 LKB      -0.167800
     14 C8         -19.3150    -3.6610   -26.3110 ca         1 LKB       0.386500
     15 N2         -19.7750    -4.9140   -26.5260 na         1 LKB      -0.317400
     16 C7         -20.2980    -5.0060   -27.7920 cc         1 LKB      -0.154100
     17 C6         -20.1790    -3.7920   -28.4150 cd         1 LKB       0.005400
     18 N1         -20.5560    -3.4030   -29.6980 ns         1 LKB      -0.381100
     19 C5         -20.9850    -4.2340   -30.6720 c          1 LKB       0.620700
     20 O          -21.1390    -5.4330   -30.4990 o          1 LKB      -0.588100
     21 C2         -21.2710    -3.5950   -31.9870 ca         1 LKB      -0.208600
     22 C1         -20.6240    -2.4550   -32.4510 ca         1 LKB      -0.050000
     23 C3         -22.2070    -4.1990   -32.8250 ca         1 LKB       0.390900
     24 N          -22.5240    -3.7340   -34.0230 nb         1 LKB      -0.667000
     25 C4         -21.9020    -2.6400   -34.4520 ca         1 LKB       0.359900
     26 C          -20.9450    -1.9690   -33.7070 ca         1 LKB      -0.172000
     27 H10        -17.8380     2.8920   -24.0510 ha         1 LKB       0.127000
     28 H9         -18.6230     0.5810   -24.1820 ha         1 LKB       0.120500
     29 H11        -16.6870     2.7370   -28.1840 ha         1 LKB       0.127000
     30 H12        -17.4300     0.4100   -28.3030 ha         1 LKB       0.120500
     31 H7         -17.8750    -1.5800   -24.3400 h4         1 LKB       0.024100
     32 H8         -19.3030    -0.9380   -28.3400 ha         1 LKB       0.115000
     33 H6         -19.7280    -5.6750   -25.8670 hn         1 LKB       0.368000
     34 H5         -20.7120    -5.9330   -28.1410 h4         1 LKB       0.248000
     35 H4         -20.5740    -2.4110   -29.8720 hn         1 LKB       0.325500
     36 H1         -19.8600    -1.9590   -31.8660 ha         1 LKB       0.118000
     37 H2         -22.7240    -5.0950   -32.5010 h4         1 LKB       0.042100
     38 H3         -22.1750    -2.2830   -35.4380 h4         1 LKB       0.024100
     39 H          -20.4570    -1.0910   -34.1070 ha         1 LKB       0.129000
@<TRIPOS>BOND
     1     1     2 3   
     2     2     3 1   
     3     3     4 ar  
     4     3     6 ar  
     5     4     5 ar  
     6     4    27 1   
     7     5     8 ar  
     8     5    28 1   
     9     6     7 ar  
    10     6    29 1   
    11     7     8 ar  
    12     7    30 1   
    13     8     9 1   
    14     9    10 ar  
    15     9    12 ar  
    16    10    11 ar  
    17    10    31 1   
    18    11    14 ar  
    19    12    13 ar  
    20    12    32 1   
    21    13    14 ar  
    22    13    17 1   
    23    14    15 1   
    24    15    16 1   
    25    15    33 1   
    26    16    17 2   
    27    16    34 1   
    28    17    18 1   
    29    18    19 1   
    30    18    35 1   
    31    19    20 2   
    32    19    21 1   
    33    21    22 ar  
    34    21    23 ar  
    35    22    26 ar  
    36    22    36 1   
    37    23    24 ar  
    38    23    37 1   
    39    24    25 ar  
    40    25    26 ar  
    41    25    38 1   
    42    26    39 1   
@<TRIPOS>SUBSTRUCTURE
     1 LKB         1 TEMP              0 ****  ****    0 ROOT
