@<TRIPOS>MOLECULE
LKE
   33    34     1     0     0
SMALL
abcg2


@<TRIPOS>ATOM
      1 CA1         24.5840     4.8400     0.8820 c3         1 LKE       0.114500
      2 N1          25.6780     4.0440     0.3370 n8         1 LKE      -0.997200
      3 C1          24.0610     4.2160     2.1320 cc         1 LKE       0.453600
      4 N2          22.9660     3.5350     2.1900 nc         1 LKE      -0.741000
      5 N3          24.7600     4.2660     3.3180 n          1 LKE      -0.296400
      6 CA3         25.8030     5.2040     3.6500 c3         1 LKE      -0.062000
      7 C3          25.2600     6.6320     3.9170 c          1 LKE       0.708000
      8 O3          24.0500     6.8170     3.7030 o          1 LKE      -0.714000
      9 C2          24.0120     3.6140     4.2720 c          1 LKE       0.448700
     10 O2          24.2780     3.5160     5.4530 o          1 LKE      -0.513000
     11 CA2         22.8510     3.1030     3.5030 cd         1 LKE       0.372600
     12 CB2         21.8780     2.3610     4.0660 cf         1 LKE      -0.221600
     13 CG2         20.6800     1.8060     3.4710 cc         1 LKE      -0.027000
     14 CD2         19.8170     1.0690     4.2930 cc         1 LKE      -0.142000
     15 CE2         18.6490     0.5200     3.8040 cd         1 LKE      -0.294100
     16 CZ          18.3070     0.6950     2.4650 cd         1 LKE       0.451900
     17 CE1         19.1550     1.4220     1.6270 cd         1 LKE      -0.294100
     18 CD1         20.3230     1.9670     2.1250 cc         1 LKE      -0.142000
     19 NW          17.1030     0.1080     2.0590 ne         1 LKE      -0.407400
     20 NX          16.7520     0.2280     0.8930 n1         1 LKE       0.132700
     21 NY          16.3290     0.2710    -0.1440 n1         1 LKE      -0.077000
     22 OXT         26.1130     7.4430     4.3130 o          1 LKE      -0.714000
     23 H1          24.8370     5.8890     1.0770 h1         1 LKE       0.066700
     24 H2          23.7650     4.8400     0.1640 h1         1 LKE       0.066700
     25 H3          25.8650     4.3600    -0.6060 hn         1 LKE       0.393000
     26 H4          26.5300     4.2160     0.8560 hn         1 LKE       0.393000
     27 H6          26.3260     4.8310     4.5310 h1         1 LKE       0.044200
     28 H7          26.5460     5.2350     2.8500 h1         1 LKE       0.044200
     29 H8          22.0080     2.1540     5.1240 ha         1 LKE       0.185000
     30 H9          20.0670     0.9270     5.3370 ha         1 LKE       0.203500
     31 H10         17.9930    -0.0430     4.4530 ha         1 LKE       0.180500
     32 H11         18.9140     1.5720     0.5810 ha         1 LKE       0.180500
     33 H12         20.9660     2.5280     1.4630 ha         1 LKE       0.203500
@<TRIPOS>BOND
     1     1     2 1   
     2     1     3 1   
     3     1    23 1   
     4     1    24 1   
     5     2    25 1   
     6     2    26 1   
     7     3     4 1   
     8     3     5 2   
     9     4    11 2   
    10     5     6 1   
    11     5     9 1   
    12     6     7 1   
    13     6    27 1   
    14     6    28 1   
    15     7     8 1   
    16     7    22 1   
    17     9    10 2   
    18     9    11 1   
    19    11    12 1   
    20    12    13 2   
    21    12    29 1   
    22    13    14 1   
    23    13    18 1   
    24    14    15 2   
    25    14    30 1   
    26    15    16 1   
    27    15    31 1   
    28    16    17 1   
    29    16    19 2   
    30    17    18 2   
    31    17    32 1   
    32    18    33 1   
    33    19    20 1   
    34    20    21 3   
@<TRIPOS>SUBSTRUCTURE
     1 LKE         1 TEMP              0 ****  ****    0 ROOT
