@<TRIPOS>MOLECULE
LKE
   33    34     1     0     0
SMALL
No Charge or Current Charge


@<TRIPOS>ATOM
      1 CA1         24.5600     4.9670     0.8220 c3         1 LKE       0.114500
      2 N1          25.6100     4.2300     0.0370 n8         1 LKE      -0.997200
      3 C1          24.0840     4.2770     2.1040 cc         1 LKE       0.453600
      4 N2          22.9810     3.4410     2.1290 nc         1 LKE      -0.741000
      5 N3          24.6950     4.3880     3.3390 n          1 LKE      -0.296400
      6 CA3         25.8700     5.2310     3.6890 c3         1 LKE      -0.062000
      7 C3          25.5080     6.6550     4.1690 c          1 LKE       0.708000
      8 O3          24.7700     7.3310     3.4670 o          1 LKE      -0.714000
      9 C2          24.0040     3.6240     4.2540 c          1 LKE       0.448700
     10 O2          24.2460     3.4870     5.4500 o          1 LKE      -0.513000
     11 CA2         22.9230     3.0450     3.4060 cd         1 LKE       0.372600
     12 CB2         21.8970     2.1340     3.9430 cf         1 LKE      -0.221600
     13 CG2         20.6890     1.7040     3.4490 cc         1 LKE      -0.027000
     14 CD2         19.6720     1.2220     4.3490 cc         1 LKE      -0.142000
     15 CE2         18.4420     0.7730     3.9060 cd         1 LKE      -0.294100
     16 CZ          18.1430     0.7630     2.5070 cd         1 LKE       0.451900
     17 CE1         19.1380     1.2310     1.5770 cd         1 LKE      -0.294100
     18 CD1         20.3610     1.6770     2.0460 cc         1 LKE      -0.142000
     19 NW          16.9600     0.3310     2.1330 ne         1 LKE      -0.407400
     20 NX          16.7320    -0.0020     0.9480 n1         1 LKE       0.132700
     21 NY          16.4020    -0.3550    -0.0820 n1         1 LKE      -0.077000
     22 OXT         25.9530     7.0340     5.2430 o          1 LKE      -0.714000
     23 H1          24.9450     5.9630     1.0820 h1         1 LKE       0.066700
     24 H2          23.6860     5.1210     0.1740 h1         1 LKE       0.066700
     25 H3          25.8990     4.8030    -0.7670 hn         1 LKE       0.393000
     26 H4          26.4670     4.1510     0.6000 hn         1 LKE       0.393000
     27 H6          26.4440     4.7320     4.4800 h1         1 LKE       0.044200
     28 H7          26.5250     5.3260     2.8160 h1         1 LKE       0.044200
     29 H8          21.9950     2.0120     5.0210 ha         1 LKE       0.185000
     30 H9          19.8830     1.2200     5.4170 ha         1 LKE       0.203500
     31 H10         17.6980     0.4230     4.6140 ha         1 LKE       0.180500
     32 H11         18.9400     1.2400     0.5110 ha         1 LKE       0.180500
     33 H12         21.1030     2.0090     1.3280 ha         1 LKE       0.203500
@<TRIPOS>BOND
     1     1     2 1   
     2     1     3 1   
     3     1    23 1   
     4     1    24 1   
     5     2    25 1   
     6     2    26 1   
     7     3     4 1   
     8     3     5 2   
     9     4    11 2   
    10     5     6 1   
    11     5     9 1   
    12     6     7 1   
    13     6    27 1   
    14     6    28 1   
    15     7     8 1   
    16     7    22 1   
    17     9    10 2   
    18     9    11 1   
    19    11    12 1   
    20    12    13 2   
    21    12    29 1   
    22    13    14 1   
    23    13    18 1   
    24    14    15 2   
    25    14    30 1   
    26    15    16 1   
    27    15    31 1   
    28    16    17 1   
    29    16    19 2   
    30    17    18 2   
    31    17    32 1   
    32    18    33 1   
    33    19    20 1   
    34    20    21 3   
@<TRIPOS>SUBSTRUCTURE
     1 LKE         1 TEMP              0 ****  ****    0 ROOT
