@<TRIPOS>MOLECULE
LKF
   50    53     1     0     0
SMALL
abcg2


@<TRIPOS>ATOM
      1 CAL        -16.5500   -39.2570    15.6030 c6         1 LKF       0.185300
      2 CAO        -17.7000   -39.5880    14.6660 c6         1 LKF       0.139600
      3 OAK        -18.4310   -38.4240    14.2870 os         1 LKF      -0.456000
      4 CAN        -18.9700   -37.7810    15.4400 c6         1 LKF       0.139600
      5 CAM        -17.8770   -37.3670    16.4070 c6         1 LKF       0.185300
      6 NAH        -17.0510   -38.5220    16.7590 nh         1 LKF      -0.776300
      7 CAC        -16.4610   -38.6900    17.9780 cc         1 LKF       0.678900
      8 NAF        -15.3540   -39.4160    18.0490 nd         1 LKF      -0.779000
      9 CAJ        -14.7680   -39.6420    19.2560 cd         1 LKF       0.344900
     10 CAI        -15.2410   -39.1670    20.4330 cc         1 LKF      -0.217000
     11 NAB        -16.4040   -38.4300    20.3790 na         1 LKF       0.164100
     12 CAA        -17.0400   -38.1460    19.1800 cc         1 LKF      -0.154000
     13 NAD        -18.1340   -37.4170    19.4040 nd         1 LKF      -0.290600
     14 CAG        -18.2060   -37.2280    20.7500 cd         1 LKF       0.066400
     15 CAP        -19.3180   -36.4620    21.3870 c3         1 LKF      -0.012900
     16 CAE        -17.1410   -37.8450    21.3890 cc         1 LKF      -0.064300
     17 CAQ        -16.8250   -38.0030    22.7990 cc         1 LKF      -0.161800
     18 CAS        -16.6340   -37.0050    23.7430 cd         1 LKF      -0.121000
     19 CAT        -16.6310   -39.2010    23.5250 cc         1 LKF       0.258900
     20 NAU        -16.3540   -38.9560    24.8010 nd         1 LKF      -0.530800
     21 NAR        -16.3580   -37.6120    24.9150 na         1 LKF       0.125800
     22 CAV        -16.1370   -36.9740    26.2050 c3         1 LKF       0.095600
     23 CAW        -14.8050   -37.3620    26.8290 c3         1 LKF       0.151300
     24 CAZ        -14.7670   -36.9680    28.2990 c3         1 LKF      -0.120100
     25 OAX        -13.8030   -36.7150    26.0420 os         1 LKF      -0.470000
     26 CAY        -12.4780   -37.1660    26.2840 c3         1 LKF       0.148900
     27 HAL1       -16.0820   -40.1760    15.9450 h1         1 LKF       0.069700
     28 HAL2       -15.7880   -38.6710    15.0740 h1         1 LKF       0.069700
     29 HAO1       -17.3160   -40.0300    13.7470 h1         1 LKF       0.055450
     30 HAO2       -18.3770   -40.3070    15.1450 h1         1 LKF       0.055450
     31 HAN1       -19.5140   -36.9040    15.0880 h1         1 LKF       0.055450
     32 HAN2       -19.6740   -38.4570    15.9420 h1         1 LKF       0.055450
     33 HAM1       -17.2420   -36.6080    15.9330 h1         1 LKF       0.069700
     34 HAM2       -18.3180   -36.9490    17.3050 h1         1 LKF       0.069700
     35 HAJ        -13.8610   -40.2310    19.2400 h4         1 LKF       0.029100
     36 HAI        -14.7950   -39.3380    21.3980 h4         1 LKF       0.159000
     37 HAP1       -20.0050   -36.1030    20.6220 hc         1 LKF       0.046033
     38 HAP2       -19.8720   -37.0900    22.0890 hc         1 LKF       0.046033
     39 HAP3       -18.9430   -35.6060    21.9510 hc         1 LKF       0.046033
     40 HAS        -16.6820   -35.9320    23.6620 h4         1 LKF       0.160000
     41 HAT        -16.6960   -40.2150    23.1670 h4         1 LKF       0.041100
     42 HAV1       -16.1520   -35.8990    26.0300 h1         1 LKF       0.069700
     43 HAV2       -16.9610   -37.2270    26.8740 h1         1 LKF       0.069700
     44 HAW        -14.6730   -38.4460    26.7300 h1         1 LKF       0.064700
     45 HAZ1       -13.7950   -37.1780    28.7460 hc         1 LKF       0.046367
     46 HAZ2       -14.9850   -35.9050    28.4240 hc         1 LKF       0.046367
     47 HAZ3       -15.5160   -37.5400    28.8490 hc         1 LKF       0.046367
     48 HAY1       -11.8330   -36.6240    25.5940 h1         1 LKF       0.033033
     49 HAY2       -12.1550   -36.9630    27.3080 h1         1 LKF       0.033033
     50 HAY3       -12.3920   -38.2420    26.0910 h1         1 LKF       0.033033
@<TRIPOS>BOND
     1     1     2 1   
     2     1     6 1   
     3     1    27 1   
     4     1    28 1   
     5     2     3 1   
     6     2    29 1   
     7     2    30 1   
     8     3     4 1   
     9     4     5 1   
    10     4    31 1   
    11     4    32 1   
    12     5     6 1   
    13     5    33 1   
    14     5    34 1   
    15     6     7 1   
    16     7     8 2   
    17     7    12 1   
    18     8     9 1   
    19     9    10 2   
    20     9    35 1   
    21    10    11 1   
    22    10    36 1   
    23    11    12 1   
    24    11    16 1   
    25    12    13 2   
    26    13    14 1   
    27    14    15 1   
    28    14    16 2   
    29    15    37 1   
    30    15    38 1   
    31    15    39 1   
    32    16    17 1   
    33    17    18 2   
    34    17    19 1   
    35    18    21 1   
    36    18    40 1   
    37    19    20 2   
    38    19    41 1   
    39    20    21 1   
    40    21    22 1   
    41    22    23 1   
    42    22    42 1   
    43    22    43 1   
    44    23    24 1   
    45    23    25 1   
    46    23    44 1   
    47    24    45 1   
    48    24    46 1   
    49    24    47 1   
    50    25    26 1   
    51    26    48 1   
    52    26    49 1   
    53    26    50 1   
@<TRIPOS>SUBSTRUCTURE
     1 LKF         1 TEMP              0 ****  ****    0 ROOT
