@<TRIPOS>MOLECULE
LKF
   50    53     1     0     0
SMALL
No Charge or Current Charge


@<TRIPOS>ATOM
      1 CAL        -17.5830   -39.6020    15.6770 c6         1 LKF       0.185300
      2 CAO        -18.6870   -38.9630    14.7820 c6         1 LKF       0.139600
      3 OAK        -18.3110   -37.6240    14.3750 os         1 LKF      -0.456000
      4 CAN        -18.0860   -36.7420    15.5020 c6         1 LKF       0.139600
      5 CAM        -16.9520   -37.2950    16.4150 c6         1 LKF       0.185300
      6 NAH        -17.2160   -38.7130    16.8290 nh         1 LKF      -0.776300
      7 CAC        -16.6480   -39.2280    17.9760 cc         1 LKF       0.678900
      8 NAF        -15.8860   -40.2970    17.8350 nd         1 LKF      -0.779000
      9 CAJ        -15.1820   -40.6700    18.9900 cd         1 LKF       0.344900
     10 CAI        -15.3460   -40.0500    20.2310 cc         1 LKF      -0.217000
     11 NAB        -16.4440   -39.2040    20.3380 na         1 LKF       0.164100
     12 CAA        -16.9090   -38.5930    19.2280 cc         1 LKF      -0.154000
     13 NAD        -17.5840   -37.5000    19.5680 nd         1 LKF      -0.290600
     14 CAG        -17.4330   -37.3710    20.9430 cd         1 LKF       0.066400
     15 CAP        -18.0740   -36.2100    21.6590 c3         1 LKF      -0.012900
     16 CAE        -16.7010   -38.4340    21.4520 cc         1 LKF      -0.064300
     17 CAQ        -16.3840   -38.7230    22.8400 cc         1 LKF      -0.161800
     18 CAS        -16.5800   -37.8810    23.8970 cd         1 LKF      -0.121000
     19 CAT        -15.8630   -39.9130    23.3870 cc         1 LKF       0.258900
     20 NAU        -15.7000   -39.8770    24.6930 nd         1 LKF      -0.530800
     21 NAR        -16.1410   -38.6010    25.0140 na         1 LKF       0.125800
     22 CAV        -16.1370   -38.1260    26.4090 c3         1 LKF       0.095600
     23 CAW        -14.9510   -37.1910    26.7360 c3         1 LKF       0.151300
     24 CAZ        -14.8810   -36.8490    28.2430 c3         1 LKF      -0.120100
     25 OAX        -15.1350   -35.9690    25.9840 os         1 LKF      -0.470000
     26 CAY        -14.0160   -35.0600    25.9540 c3         1 LKF       0.148900
     27 HAL1       -17.9490   -40.5740    16.0400 h1         1 LKF       0.069700
     28 HAL2       -16.6970   -39.8040    15.0580 h1         1 LKF       0.069700
     29 HAO1       -18.8460   -39.5810    13.8880 h1         1 LKF       0.055450
     30 HAO2       -19.6360   -38.9180    15.3370 h1         1 LKF       0.055450
     31 HAN1       -17.8120   -35.7450    15.1300 h1         1 LKF       0.055450
     32 HAN2       -19.0170   -36.6460    16.0800 h1         1 LKF       0.055450
     33 HAM1       -16.0030   -37.2420    15.8620 h1         1 LKF       0.069700
     34 HAM2       -16.8430   -36.6290    17.2810 h1         1 LKF       0.069700
     35 HAJ        -14.4440   -41.4500    18.8510 h4         1 LKF       0.029100
     36 HAI        -14.7360   -40.2530    21.0930 h4         1 LKF       0.159000
     37 HAP1       -18.6790   -35.6030    20.9740 hc         1 LKF       0.046033
     38 HAP2       -18.7390   -36.5580    22.4580 hc         1 LKF       0.046033
     39 HAP3       -17.3160   -35.5510    22.0970 hc         1 LKF       0.046033
     40 HAS        -16.9530   -36.8690    23.9720 h4         1 LKF       0.160000
     41 HAT        -15.6240   -40.8350    22.8770 h4         1 LKF       0.041100
     42 HAV1       -17.0800   -37.6020    26.6040 h1         1 LKF       0.069700
     43 HAV2       -16.0990   -39.0000    27.0700 h1         1 LKF       0.069700
     44 HAW        -14.0210   -37.6980    26.4410 h1         1 LKF       0.064700
     45 HAZ1       -13.9590   -36.3090    28.4870 hc         1 LKF       0.046367
     46 HAZ2       -15.7380   -36.2340    28.5440 hc         1 LKF       0.046367
     47 HAZ3       -14.8910   -37.7660    28.8440 hc         1 LKF       0.046367
     48 HAY1       -14.2260   -34.2260    25.2730 h1         1 LKF       0.033033
     49 HAY2       -13.8170   -34.6380    26.9470 h1         1 LKF       0.033033
     50 HAY3       -13.1100   -35.5680    25.5990 h1         1 LKF       0.033033
@<TRIPOS>BOND
     1     1     2 1   
     2     1     6 1   
     3     1    27 1   
     4     1    28 1   
     5     2     3 1   
     6     2    29 1   
     7     2    30 1   
     8     3     4 1   
     9     4     5 1   
    10     4    31 1   
    11     4    32 1   
    12     5     6 1   
    13     5    33 1   
    14     5    34 1   
    15     6     7 1   
    16     7     8 2   
    17     7    12 1   
    18     8     9 1   
    19     9    10 2   
    20     9    35 1   
    21    10    11 1   
    22    10    36 1   
    23    11    12 1   
    24    11    16 1   
    25    12    13 2   
    26    13    14 1   
    27    14    15 1   
    28    14    16 2   
    29    15    37 1   
    30    15    38 1   
    31    15    39 1   
    32    16    17 1   
    33    17    18 2   
    34    17    19 1   
    35    18    21 1   
    36    18    40 1   
    37    19    20 2   
    38    19    41 1   
    39    20    21 1   
    40    21    22 1   
    41    22    23 1   
    42    22    42 1   
    43    22    43 1   
    44    23    24 1   
    45    23    25 1   
    46    23    44 1   
    47    24    45 1   
    48    24    46 1   
    49    24    47 1   
    50    25    26 1   
    51    26    48 1   
    52    26    49 1   
    53    26    50 1   
@<TRIPOS>SUBSTRUCTURE
     1 LKF         1 TEMP              0 ****  ****    0 ROOT
