@<TRIPOS>MOLECULE
LKG
   37    40     1     0     0
SMALL
No Charge or Current Charge


@<TRIPOS>ATOM
      1 N1          -0.1060    -1.7540    -0.3250 na         1 LKG       0.128000
      2 N3           0.5680    -3.7360     0.2900 nc         1 LKG      -0.068000
      3 C4          -2.9610     0.4690     0.0900 ca         1 LKG      -0.156500
      4 C5          -2.6040     1.5700    -0.7390 ca         1 LKG      -0.078000
      5 C6          -3.4230     2.7080    -0.8410 ca         1 LKG      -0.116000
      6 C7          -2.0690    -0.7250     0.1880 cc         1 LKG       0.383500
      7 C8          -2.4730    -1.8900     0.9680 cc         1 LKG      -0.147000
      8 C10         -0.4230    -2.8640     0.3800 cd         1 LKG      -0.150000
      9 C13          2.6240     0.1120    -0.9260 ca         1 LKG      -0.130300
     10 C15          4.5470     0.8490     0.3810 ca         1 LKG      -0.178500
     11 C17          2.6740     2.3570     0.0300 ca         1 LKG      -0.178500
     12 C14          3.8930    -0.1440    -0.3690 ca         1 LKG      -0.053500
     13 C16          3.9400     2.0970     0.5800 ca         1 LKG       0.143100
     14 O1           4.5820     3.0510     1.3090 oh         1 LKG      -0.533100
     15 C18          2.0170     1.3670    -0.7210 ca         1 LKG      -0.053500
     16 C11          1.1330    -1.9390    -0.8760 cd         1 LKG       0.363800
     17 N2          -0.8980    -0.6280    -0.4690 nd         1 LKG      -0.455800
     18 N4           1.5610    -3.1480    -0.5080 nc         1 LKG      -0.368700
     19 C9          -1.6510    -2.9880     1.0760 cd         1 LKG      -0.023000
     20 C3          -4.1770     0.5810     0.8200 ca         1 LKG      -0.078000
     21 C2          -4.9910     1.7220     0.7130 ca         1 LKG      -0.116000
     22 C1          -4.6180     2.7860    -0.1180 ca         1 LKG      -0.091000
     23 H5          -1.6890     1.5610    -1.3250 ha         1 LKG       0.121500
     24 H6          -3.1260     3.5320    -1.4870 ha         1 LKG       0.118000
     25 H8          -3.4280    -1.9230     1.4680 ha         1 LKG       0.137000
     26 H15          5.5260     0.6470     0.8090 ha         1 LKG       0.121000
     27 H17          2.1940     3.3210     0.1800 ha         1 LKG       0.121000
     28 H14          4.3700    -1.1110    -0.5150 ha         1 LKG       0.119500
     29 HO1          4.0140     3.8500     1.3430 ho         1 LKG       0.464000
     30 H18          1.0350     1.5750    -1.1410 ha         1 LKG       0.119500
     31 H12          1.2280    -0.5080    -2.4570 hc         1 LKG       0.074200
     32 H12A         2.6370    -1.5230    -2.3340 hc         1 LKG       0.074200
     33 H9          -1.9220    -3.8730     1.6450 ha         1 LKG       0.152000
     34 H3          -4.5210    -0.1970     1.4910 ha         1 LKG       0.121500
     35 H2          -5.9170     1.7810     1.2820 ha         1 LKG       0.118000
     36 H1          -5.2510     3.6680    -0.1970 ha         1 LKG       0.117000
     37 C12          1.9090    -0.9690    -1.7310 c3         1 LKG      -0.022400
@<TRIPOS>BOND
     1     1     8 1   
     2     1    16 1   
     3     1    17 1   
     4     2     8 2   
     5     2    18 1   
     6     3     4 ar  
     7     3     6 1   
     8     3    20 ar  
     9     4     5 ar  
    10     4    23 1   
    11     5    22 ar  
    12     5    24 1   
    13     6     7 1   
    14     6    17 2   
    15     7    19 2   
    16     7    25 1   
    17     8    19 1   
    18     9    12 ar  
    19     9    15 ar  
    20     9    37 1   
    21    10    12 ar  
    22    10    13 ar  
    23    10    26 1   
    24    11    13 ar  
    25    11    15 ar  
    26    11    27 1   
    27    12    28 1   
    28    13    14 1   
    29    14    29 1   
    30    15    30 1   
    31    16    18 2   
    32    16    37 1   
    33    19    33 1   
    34    20    21 ar  
    35    20    34 1   
    36    21    22 ar  
    37    21    35 1   
    38    22    36 1   
    39    31    37 1   
    40    32    37 1   
@<TRIPOS>SUBSTRUCTURE
     1 LKG         1 TEMP              0 ****  ****    0 ROOT
