@<TRIPOS>MOLECULE
LKG
   37    40     1     0     0
SMALL
bcc


@<TRIPOS>ATOM
      1 N1          -0.0440    -1.8000    -0.4440 na         1 LKG       0.077300
      2 N3           0.6110    -3.8310     0.0370 nc         1 LKG      -0.068000
      3 C4          -2.7160     0.5080     0.0810 ca         1 LKG      -0.156500
      4 C5          -2.5930     1.3770    -1.0050 ca         1 LKG      -0.096000
      5 C6          -3.3510     2.5350    -1.0660 ca         1 LKG      -0.134000
      6 C7          -1.8960    -0.7160     0.1470 cc         1 LKG       0.448800
      7 C8          -2.3400    -1.8710     0.8790 cc         1 LKG      -0.230300
      8 C10         -0.3530    -2.9610     0.2170 cd         1 LKG      -0.099300
      9 C13          2.4410     0.1030    -0.9300 ca         1 LKG      -0.130300
     10 C15          4.0480     0.8630     0.7140 ca         1 LKG      -0.196500
     11 C17          2.3310     2.3580    -0.0590 ca         1 LKG      -0.196500
     12 C14          3.5490    -0.1250    -0.1170 ca         1 LKG      -0.071500
     13 C16          3.4360     2.1150     0.7520 ca         1 LKG       0.143100
     14 O1           3.9510     3.0450     1.5820 oh         1 LKG      -0.494100
     15 C18          1.8430     1.3560    -0.8860 ca         1 LKG      -0.071500
     16 C11          1.1610    -2.0180    -1.0280 cd         1 LKG       0.363800
     17 N2          -0.7710    -0.6900    -0.5020 nd         1 LKG      -0.455800
     18 N4           1.5430    -3.2350    -0.7350 nc         1 LKG      -0.368700
     19 C9          -1.5800    -2.9910     0.9170 cd         1 LKG      -0.041000
     20 C3          -3.6080     0.8270     1.1040 ca         1 LKG      -0.096000
     21 C2          -4.3620     1.9900     1.0440 ca         1 LKG      -0.134000
     22 C1          -4.2380     2.8460    -0.0420 ca         1 LKG      -0.109000
     23 H5          -1.9090     1.1400    -1.8090 ha         1 LKG       0.139500
     24 H6          -3.2530     3.1960    -1.9170 ha         1 LKG       0.136000
     25 H8          -3.2960    -1.8510     1.3810 ha         1 LKG       0.155000
     26 H15          4.9130     0.6690     1.3370 ha         1 LKG       0.139000
     27 H17          1.8460     3.3280    -0.0480 ha         1 LKG       0.139000
     28 H14          4.0340    -1.0940    -0.1280 ha         1 LKG       0.137500
     29 HO1          3.4380     3.8590     1.5340 ho         1 LKG       0.425000
     30 H18          0.9750     1.5580    -1.5010 ha         1 LKG       0.137500
     31 H12          1.2470    -0.5780    -2.5790 hc         1 LKG       0.074200
     32 H12A         2.7130    -1.5090    -2.3290 hc         1 LKG       0.074200
     33 H9          -1.8850    -3.8820     1.4470 ha         1 LKG       0.170000
     34 H3          -3.7070     0.1840     1.9690 ha         1 LKG       0.139500
     35 H2          -5.0440     2.2280     1.8500 ha         1 LKG       0.136000
     36 H1          -4.8290     3.7510    -0.0910 ha         1 LKG       0.135000
     37 C12          1.9000    -0.9980    -1.8120 c3         1 LKG      -0.022400
@<TRIPOS>BOND
     1     1     8 1   
     2     1    16 1   
     3     1    17 1   
     4     2     8 2   
     5     2    18 1   
     6     3     4 ar  
     7     3     6 1   
     8     3    20 ar  
     9     4     5 ar  
    10     4    23 1   
    11     5    22 ar  
    12     5    24 1   
    13     6     7 1   
    14     6    17 2   
    15     7    19 2   
    16     7    25 1   
    17     8    19 1   
    18     9    12 ar  
    19     9    15 ar  
    20     9    37 1   
    21    10    12 ar  
    22    10    13 ar  
    23    10    26 1   
    24    11    13 ar  
    25    11    15 ar  
    26    11    27 1   
    27    12    28 1   
    28    13    14 1   
    29    14    29 1   
    30    15    30 1   
    31    16    18 2   
    32    16    37 1   
    33    19    33 1   
    34    20    21 ar  
    35    20    34 1   
    36    21    22 ar  
    37    21    35 1   
    38    22    36 1   
    39    31    37 1   
    40    32    37 1   
@<TRIPOS>SUBSTRUCTURE
     1 LKG         1 TEMP              0 ****  ****    0 ROOT
