@<TRIPOS>MOLECULE
LKH
   34    36     1     0     0
SMALL
bcc


@<TRIPOS>ATOM
      1 CAH         -0.5240    -9.2440    59.3780 ca         1 LKH      -0.103500
      2 CAJ         -0.7380   -10.4500    60.0160 ca         1 LKH      -0.124000
      3 CAU          0.0300   -11.5760    59.7100 ca         1 LKH      -0.091600
      4 CAQ         -0.2010   -12.9030    60.4350 c          1 LKH       0.922200
      5 OAB          0.5300   -13.8500    60.0930 o          1 LKH      -0.814300
      6 OAA         -1.0960   -12.9080    61.3000 o          1 LKH      -0.814300
      7 CAK          1.0170   -11.4620    58.7360 ca         1 LKH      -0.124000
      8 CAI          1.2400   -10.2580    58.0900 ca         1 LKH      -0.103500
      9 CAS          0.4740    -9.1350    58.4050 ca         1 LKH      -0.218900
     10 CAE          0.7670    -7.8870    57.7200 ce         1 LKH       0.535800
     11 NAN          0.0760    -6.8370    57.9380 n2         1 LKH      -0.508300
     12 NAX          0.5150    -5.7100    57.2930 n          1 LKH      -0.079300
     13 CAT          1.7770    -5.1730    57.3590 cs         1 LKH       0.491400
     14 SAC          3.1370    -5.7620    58.1210 s          1 LKH      -0.612400
     15 NAO          1.6310    -4.0250    56.6880 ns         1 LKH      -0.225900
     16 NAP          0.3870    -3.8020    56.2390 nc         1 LKH      -0.514300
     17 CAW         -0.3000    -4.8320    56.6220 cd         1 LKH       0.436500
     18 CAV         -1.7160    -5.0120    56.3090 ca         1 LKH      -0.115900
     19 CAL         -2.2110    -4.4150    55.1480 ca         1 LKH      -0.076500
     20 CAF         -3.5510    -4.5080    54.8180 ca         1 LKH      -0.134000
     21 CAR         -4.4060    -5.2060    55.6570 ca         1 LKH       0.043400
     22 CLA         -6.0820    -5.3290    55.2510 cl         1 LKH      -0.113400
     23 CAG         -3.9380    -5.8070    56.8150 ca         1 LKH      -0.134000
     24 CAM         -2.5940    -5.7090    57.1390 ca         1 LKH      -0.076500
     25 H1          -1.1220    -8.3800    59.6380 ha         1 LKH       0.116500
     26 H2          -1.5070   -10.5260    60.7730 ha         1 LKH       0.153500
     27 H4           1.6210   -12.3240    58.4860 ha         1 LKH       0.153500
     28 H5           2.0160   -10.1820    57.3380 ha         1 LKH       0.116500
     29 H6           1.5950    -7.9020    57.0130 h4         1 LKH       0.010800
     30 H7           2.3580    -3.3410    56.5390 hn         1 LKH       0.385500
     31 H8          -1.5440    -3.8760    54.4890 ha         1 LKH       0.160500
     32 H9          -3.9200    -4.0450    53.9130 ha         1 LKH       0.150000
     33 H10         -4.6110    -6.3450    57.4670 ha         1 LKH       0.150000
     34 H11         -2.2430    -6.1750    58.0480 ha         1 LKH       0.160500
@<TRIPOS>BOND
     1     1     2 ar  
     2     1     9 ar  
     3     1    25 1   
     4     2     3 ar  
     5     2    26 1   
     6     3     4 1   
     7     3     7 ar  
     8     4     5 1   
     9     4     6 1   
    10     7     8 ar  
    11     7    27 1   
    12     8     9 ar  
    13     8    28 1   
    14     9    10 1   
    15    10    11 2   
    16    10    29 1   
    17    11    12 1   
    18    12    13 1   
    19    12    17 1   
    20    13    14 2   
    21    13    15 1   
    22    15    16 1   
    23    15    30 1   
    24    16    17 2   
    25    17    18 1   
    26    18    19 ar  
    27    18    24 ar  
    28    19    20 ar  
    29    19    31 1   
    30    20    21 ar  
    31    20    32 1   
    32    21    22 1   
    33    21    23 ar  
    34    23    24 ar  
    35    23    33 1   
    36    24    34 1   
@<TRIPOS>SUBSTRUCTURE
     1 LKH         1 TEMP              0 ****  ****    0 ROOT
