@<TRIPOS>MOLECULE
LKH
   34    36     1     0     0
SMALL
No Charge or Current Charge


@<TRIPOS>ATOM
      1 CAH         -0.3680    -9.0050    59.5400 ca         1 LKH      -0.085500
      2 CAJ         -0.7620   -10.2490    60.0610 ca         1 LKH      -0.106000
      3 CAU         -0.3400   -11.4570    59.4580 ca         1 LKH      -0.091600
      4 CAQ         -0.7680   -12.8050    60.0230 c          1 LKH       0.711600
      5 OAB         -0.3790   -13.8240    59.4670 o          1 LKH      -0.709000
      6 OAA         -1.4860   -12.8240    61.0130 o          1 LKH      -0.709000
      7 CAK          0.4890   -11.3780    58.3150 ca         1 LKH      -0.106000
      8 CAI          0.8840   -10.1340    57.7940 ca         1 LKH      -0.085500
      9 CAS          0.4620    -8.9340    58.3990 ca         1 LKH      -0.218900
     10 CAE          0.8940    -7.6250    57.8150 ce         1 LKH       0.535800
     11 NAN          0.5160    -6.4930    58.3240 n2         1 LKH      -0.508300
     12 NAX          0.7530    -5.3160    57.6340 n          1 LKH      -0.012300
     13 CAT          1.9390    -4.5920    57.6060 cs         1 LKH       0.357400
     14 SAC          3.3930    -4.8290    58.4090 s          1 LKH      -0.612400
     15 NAO          1.6590    -3.6400    56.6710 ns         1 LKH      -0.272400
     16 NAP          0.4280    -3.6850    56.1080 nc         1 LKH      -0.514300
     17 CAW         -0.1360    -4.7200    56.7160 cd         1 LKH       0.436500
     18 CAV         -1.5120    -5.1860    56.4130 ca         1 LKH      -0.115900
     19 CAL         -2.0650    -4.9450    55.1340 ca         1 LKH      -0.058500
     20 CAF         -3.3800    -5.3400    54.8330 ca         1 LKH      -0.116000
     21 CAR         -4.1680    -5.9600    55.8120 ca         1 LKH       0.135000
     22 ClA         -5.8150    -6.4510    55.4360 cl         1 LKH      -0.205000
     23 CAG         -3.6490    -6.1730    57.0970 ca         1 LKH      -0.116000
     24 CAM         -2.3340    -5.7790    57.4010 ca         1 LKH      -0.058500
     25 H1          -0.7130    -8.0970    60.0310 ha         1 LKH       0.098500
     26 H2          -1.4020   -10.2710    60.9410 ha         1 LKH       0.135500
     27 H4           0.8330   -12.2870    57.8240 ha         1 LKH       0.135500
     28 H5           1.5220   -10.1060    56.9120 ha         1 LKH       0.098500
     29 H6           1.5070    -7.6650    56.9120 h4         1 LKH       0.010800
     30 H7           2.3610    -2.9420    56.4050 hn         1 LKH       0.499000
     31 H8          -1.4690    -4.4610    54.3620 ha         1 LKH       0.142500
     32 H9          -3.7890    -5.1630    53.8410 ha         1 LKH       0.132000
     33 H10         -4.2680    -6.6350    57.8620 ha         1 LKH       0.132000
     34 H11         -1.9700    -5.9240    58.4150 ha         1 LKH       0.142500
@<TRIPOS>BOND
     1     1     2 ar  
     2     1     9 ar  
     3     1    25 1   
     4     2     3 ar  
     5     2    26 1   
     6     3     4 1   
     7     3     7 ar  
     8     4     5 1   
     9     4     6 1   
    10     7     8 ar  
    11     7    27 1   
    12     8     9 ar  
    13     8    28 1   
    14     9    10 1   
    15    10    11 2   
    16    10    29 1   
    17    11    12 1   
    18    12    13 1   
    19    12    17 1   
    20    13    14 2   
    21    13    15 1   
    22    15    16 1   
    23    15    30 1   
    24    16    17 2   
    25    17    18 1   
    26    18    19 ar  
    27    18    24 ar  
    28    19    20 ar  
    29    19    31 1   
    30    20    21 ar  
    31    20    32 1   
    32    21    22 1   
    33    21    23 ar  
    34    23    24 ar  
    35    23    33 1   
    36    24    34 1   
@<TRIPOS>SUBSTRUCTURE
     1 LKH         1 TEMP              0 ****  ****    0 ROOT
