@<TRIPOS>MOLECULE
LKI
   29    30     1     0     0
SMALL
abcg2


@<TRIPOS>ATOM
      1 N1           9.0890    -1.9120    24.6190 nu         1 LKI      -0.943100
      2 C4          10.6650    -3.7980    24.5800 ca         1 LKI       0.305900
      3 C5           9.6460    -3.0710    25.1950 ca         1 LKI       0.258000
      4 C6          10.9430    -0.8530    22.9160 ca         1 LKI      -0.294500
      5 C7          11.5080    -0.0640    23.9130 ca         1 LKI      -0.021000
      6 C8          12.8170     0.3730    23.7590 ca         1 LKI      -0.115000
      7 C10         12.9550    -0.7540    21.6480 ca         1 LKI       0.105000
      8 S            9.2560    -1.3850    23.0810 sy         1 LKI       1.216600
      9 C9          13.5470     0.0320    22.6260 ca         1 LKI      -0.050000
     10 N           11.1930    -4.9040    25.1060 nb         1 LKI      -0.634000
     11 C1           9.1470    -3.5060    26.4320 ca         1 LKI      -0.071300
     12 C11         11.6500    -1.2110    21.7760 ca         1 LKI      -0.003000
     13 O1           8.4010    -0.2270    22.9970 o          1 LKI      -0.532500
     14 C            8.0440    -2.7710    27.1340 c3         1 LKI      -0.050800
     15 C2           9.7170    -4.6540    26.9690 ca         1 LKI      -0.138000
     16 O            9.0550    -2.4940    22.1850 o          1 LKI      -0.532500
     17 C3          10.7240    -5.3200    26.2830 ca         1 LKI       0.316900
     18 CL          13.8690    -1.1890    20.2250 cl         1 LKI      -0.192000
     19 H1           8.6840    -1.2200    25.2350 hn         1 LKI       0.513000
     20 H2          11.0690    -3.4840    23.6270 h4         1 LKI       0.027100
     21 H3          10.9440     0.1950    24.7980 ha         1 LKI       0.119000
     22 H4          13.2760     0.9810    24.5270 ha         1 LKI       0.125000
     23 H5          14.5670     0.3700    22.5050 ha         1 LKI       0.135000
     24 H6          11.2010    -1.8330    21.0150 ha         1 LKI       0.157000
     25 H7           7.1660    -2.6790    26.4890 hc         1 LKI       0.049700
     26 H8           7.7560    -3.2920    28.0440 hc         1 LKI       0.049700
     27 H9           8.3520    -1.7570    27.4070 hc         1 LKI       0.049700
     28 H10          9.3670    -5.0330    27.9200 ha         1 LKI       0.124000
     29 H11         11.1680    -6.2180    26.6960 h4         1 LKI       0.025100
@<TRIPOS>BOND
     1     1     3 1   
     2     1     8 1   
     3     1    19 1   
     4     2     3 ar  
     5     2    10 ar  
     6     2    20 1   
     7     3    11 ar  
     8     4     5 ar  
     9     4     8 1   
    10     4    12 ar  
    11     5     6 ar  
    12     5    21 1   
    13     6     9 ar  
    14     6    22 1   
    15     7     9 ar  
    16     7    12 ar  
    17     7    18 1   
    18     8    13 2   
    19     8    16 2   
    20     9    23 1   
    21    10    17 ar  
    22    11    14 1   
    23    11    15 ar  
    24    12    24 1   
    25    14    25 1   
    26    14    26 1   
    27    14    27 1   
    28    15    17 ar  
    29    15    28 1   
    30    17    29 1   
@<TRIPOS>SUBSTRUCTURE
     1 LKI         1 TEMP              0 ****  ****    0 ROOT
