@<TRIPOS>MOLECULE
LKI
   29    30     1     0     0
SMALL
No Charge or Current Charge


@<TRIPOS>ATOM
      1 N1           9.0370    -1.8970    24.5960 nu         1 LKI      -0.943100
      2 C4          10.5870    -3.8410    24.4330 ca         1 LKI       0.305900
      3 C5           9.6020    -3.0740    25.1220 ca         1 LKI       0.258000
      4 C6          10.9030    -0.7360    22.9240 ca         1 LKI      -0.294500
      5 C7          11.4400     0.2480    23.7800 ca         1 LKI      -0.021000
      6 C8          12.7930     0.6130    23.6700 ca         1 LKI      -0.115000
      7 C10         13.0810    -0.9790    21.8520 ca         1 LKI       0.105000
      8 S            9.1750    -1.2030    23.0780 sy         1 LKI       1.216600
      9 C9          13.6140     0.0000    22.7070 ca         1 LKI      -0.050000
     10 N           11.1480    -4.9780    24.9200 nb         1 LKI      -0.634000
     11 C1           9.1920    -3.5370    26.3960 ca         1 LKI      -0.071300
     12 C11         11.7290    -1.3490    21.9560 ca         1 LKI      -0.003000
     13 O1           8.3430    -0.0070    23.2140 o          1 LKI      -0.532500
     14 C            8.1470    -2.7970    27.2290 c3         1 LKI      -0.050800
     15 C2           9.7770    -4.7180    26.8970 ca         1 LKI      -0.138000
     16 O            8.8470    -2.2890    22.1520 o          1 LKI      -0.532500
     17 C3          10.7410    -5.4010    26.1370 ca         1 LKI       0.316900
     18 Cl          14.1110    -1.7450    20.6480 cl         1 LKI      -0.192000
     19 H1           8.2320    -1.4840    25.0470 hn         1 LKI       0.513000
     20 H2          10.9430    -3.5400    23.4510 h4         1 LKI       0.027100
     21 H3          10.8130     0.7260    24.5320 ha         1 LKI       0.119000
     22 H4          13.2050     1.3710    24.3330 ha         1 LKI       0.125000
     23 H5          14.6610     0.2830    22.6230 ha         1 LKI       0.135000
     24 H6          11.3350    -2.1080    21.2830 ha         1 LKI       0.157000
     25 H7           7.1790    -2.7700    26.7160 hc         1 LKI       0.049700
     26 H8           7.9880    -3.2790    28.2010 hc         1 LKI       0.049700
     27 H9           8.4580    -1.7640    27.4260 hc         1 LKI       0.049700
     28 H10          9.4940    -5.1110    27.8700 ha         1 LKI       0.124000
     29 H11         11.2010    -6.3140    26.5140 h4         1 LKI       0.025100
@<TRIPOS>BOND
     1     1     3 1   
     2     1     8 1   
     3     1    19 1   
     4     2     3 ar  
     5     2    10 ar  
     6     2    20 1   
     7     3    11 ar  
     8     4     5 ar  
     9     4     8 1   
    10     4    12 ar  
    11     5     6 ar  
    12     5    21 1   
    13     6     9 ar  
    14     6    22 1   
    15     7     9 ar  
    16     7    12 ar  
    17     7    18 1   
    18     8    13 2   
    19     8    16 2   
    20     9    23 1   
    21    10    17 ar  
    22    11    14 1   
    23    11    15 ar  
    24    12    24 1   
    25    14    25 1   
    26    14    26 1   
    27    14    27 1   
    28    15    17 ar  
    29    15    28 1   
    30    17    29 1   
@<TRIPOS>SUBSTRUCTURE
     1 LKI         1 TEMP              0 ****  ****    0 ROOT
