@<TRIPOS>MOLECULE
LKJ
  126   134     1     0     0
SMALL
bcc


@<TRIPOS>ATOM
      1 C1          -4.2780    -2.5870    -0.4970 c          1 LKJ       0.579600
      2 N1          -5.3530    -2.5490    -1.2970 n          1 LKJ      -0.451800
      3 O1          -3.9270    -3.5920     0.1100 o          1 LKJ      -0.627100
      4 C2          -6.1950    -3.7400    -1.4400 c5         1 LKJ       0.087700
      5 N2          -7.8480    -5.1620    -0.3040 na         1 LKJ      -0.041100
      6 O2           2.0620    -3.3220     2.5130 o          1 LKJ      -0.602100
      7 C3          -7.0550    -3.4380    -2.6700 c5         1 LKJ      -0.089400
      8 N3           3.9460    -2.0660     2.4150 ns         1 LKJ      -0.562900
      9 O3           2.6140     2.9920    -0.2690 o          1 LKJ      -0.592100
     10 C4          -6.2450    -2.4080    -3.4450 c5         1 LKJ      -0.097400
     11 N4           2.7440    -0.2380     0.9450 nb         1 LKJ      -0.677000
     12 O4          -7.6560     3.8530    -2.3950 o          1 LKJ      -0.829300
     13 C5          -5.6370    -1.5580    -2.3390 c5         1 LKJ       0.103000
     14 N5           4.3600     1.5800    -0.5280 n          1 LKJ      -0.466800
     15 O5          -7.6860     1.6680    -1.9380 o          1 LKJ      -0.829300
     16 C6          -7.0180    -3.9860    -0.1740 c3         1 LKJ       0.025300
     17 N6           6.3960     4.6780     0.0900 n3         1 LKJ      -0.718600
     18 O6          -3.7520     3.2960     0.2200 o          1 LKJ      -0.640100
     19 C7          -7.4010    -6.4460    -0.2050 cc         1 LKJ      -0.164800
     20 N7          -5.5950     2.0540    -0.2740 ns         1 LKJ      -0.496900
     21 C8          -8.4510    -7.2900    -0.4660 cd         1 LKJ      -0.211500
     22 N8          -4.1610    -0.1760    -0.2860 nb         1 LKJ      -0.637000
     23 C9          -9.5800    -6.4760    -0.7410 cd         1 LKJ      -0.211500
     24 C10         -9.1700    -5.1700    -0.6350 cc         1 LKJ      -0.164800
     25 C11         -3.4970    -1.3190    -0.3000 ca         1 LKJ       0.360800
     26 C12         -2.1310    -1.3930    -0.0560 ca         1 LKJ      -0.182300
     27 C13         -1.4310    -0.2170     0.1860 cp         1 LKJ      -0.046000
     28 C14          0.0220    -0.2340     0.4380 cp         1 LKJ      -0.008000
     29 C15          0.6110    -1.2680     1.1610 ca         1 LKJ      -0.163300
     30 C16          1.9740    -1.2180     1.3950 ca         1 LKJ       0.341800
     31 C17          2.6590    -2.3120     2.1700 c          1 LKJ       0.575600
     32 C18          4.8490    -2.9970     3.0570 c3         1 LKJ       0.156300
     33 C19          6.2650    -2.5300     2.8480 ca         1 LKJ      -0.107300
     34 C20          7.0840    -2.2300     3.9290 ca         1 LKJ      -0.109000
     35 C21          8.3660    -1.7400     3.7170 ca         1 LKJ      -0.130000
     36 C22          8.8310    -1.5300     2.4290 ca         1 LKJ      -0.113000
     37 C23          8.0240    -1.8260     1.3280 cp         1 LKJ      -0.039000
     38 C24          8.5020    -1.5880    -0.0490 cp         1 LKJ      -0.036000
     39 C25          8.2360    -2.5030    -1.0690 ca         1 LKJ      -0.119000
     40 C26          8.6790    -2.2700    -2.3630 ca         1 LKJ      -0.130500
     41 C27          9.3920    -1.1160    -2.6610 ca         1 LKJ      -0.127000
     42 C28          9.6600    -0.1970    -1.6550 ca         1 LKJ      -0.130500
     43 C29          9.2200    -0.4320    -0.3610 ca         1 LKJ      -0.119000
     44 C30          6.7490    -2.3370     1.5560 ca         1 LKJ      -0.109000
     45 C31          2.2010     0.7350     0.2360 ca         1 LKJ       0.359800
     46 C32          3.0860     1.8610    -0.2230 c          1 LKJ       0.579600
     47 C33          5.2980     2.6620    -0.8700 c5         1 LKJ       0.109700
     48 C34          6.4780     1.9180    -1.5120 c5         1 LKJ      -0.089400
     49 C35          5.9020     0.5830    -1.9580 c5         1 LKJ      -0.104400
     50 C36          4.9140     0.2640    -0.8500 c5         1 LKJ       0.116000
     51 C37          5.6610     3.4690     0.3780 c3         1 LKJ       0.162800
     52 C38          7.8070     4.5070    -0.2260 c5         1 LKJ       0.161800
     53 C39          8.4350     5.8940    -0.0100 c5         1 LKJ      -0.081400
     54 C40          7.3590     6.6980     0.7420 c5         1 LKJ      -0.081400
     55 C41          6.3690     5.6330     1.1860 c5         1 LKJ       0.161800
     56 C42          0.8380     0.7880    -0.0300 ca         1 LKJ      -0.164300
     57 C43         -2.1410     0.9800     0.2010 ca         1 LKJ      -0.168300
     58 C44         -3.5060     0.9470    -0.0350 ca         1 LKJ       0.366800
     59 C45         -4.3030     2.2260    -0.0150 c          1 LKJ       0.558600
     60 C46         -6.5880     3.0990    -0.3960 c3         1 LKJ      -0.035300
     61 C47         -7.5340     3.1050     0.8200 c6         1 LKJ      -0.056700
     62 C48         -8.5700     4.2270     0.7240 c6         1 LKJ      -0.071400
     63 C49         -9.5080     4.2420     1.9280 c6         1 LKJ      -0.072900
     64 C50         -8.7380     4.3420     3.2390 c6         1 LKJ      -0.072400
     65 C51         -7.7060     3.2260     3.3400 c6         1 LKJ      -0.072900
     66 C52         -6.7660     3.2220     2.1380 c6         1 LKJ      -0.071400
     67 C53         -7.3790     2.8560    -1.7050 c          1 LKJ       0.925600
     68 H2          -5.5570    -4.6110    -1.6240 h1         1 LKJ       0.064700
     69 H3          -7.2760    -4.3380    -3.2420 hc         1 LKJ       0.058700
     70 H3A         -8.0100    -3.0010    -2.3650 hc         1 LKJ       0.058700
     71 HN3          4.3110    -1.1810     2.0910 hn         1 LKJ       0.346500
     72 H4          -5.4550    -2.8910    -4.0240 hc         1 LKJ       0.055200
     73 H4A         -6.8520    -1.8170    -4.1300 hc         1 LKJ       0.055200
     74 H5          -6.3450    -0.8050    -1.9860 h1         1 LKJ       0.083700
     75 H5A         -4.7320    -1.0460    -2.6570 h1         1 LKJ       0.083700
     76 H6          -6.3670    -4.1110     0.6900 h1         1 LKJ       0.078200
     77 H6A         -7.6630    -3.1280     0.0190 h1         1 LKJ       0.078200
     78 H7          -6.3760    -6.6590     0.0540 h4         1 LKJ       0.164500
     79 HN7         -5.9030     1.1180    -0.4970 hn         1 LKJ       0.345500
     80 H8          -8.4150    -8.3680    -0.4520 ha         1 LKJ       0.140500
     81 H9         -10.5790    -6.8070    -0.9790 ha         1 LKJ       0.140500
     82 H10         -9.7160    -4.2500    -0.7630 h4         1 LKJ       0.164500
     83 H12         -1.6270    -2.3490    -0.0770 ha         1 LKJ       0.158000
     84 H15          0.0220    -2.0840     1.5580 ha         1 LKJ       0.176000
     85 H18          4.6340    -3.0740     4.1250 h1         1 LKJ       0.057700
     86 H18A         4.7030    -3.9930     2.6300 h1         1 LKJ       0.057700
     87 H20          6.7170    -2.3690     4.9380 ha         1 LKJ       0.135000
     88 H21          9.0030    -1.5140     4.5620 ha         1 LKJ       0.132000
     89 H22          9.8330    -1.1480     2.2770 ha         1 LKJ       0.133000
     90 H25          7.6940    -3.4140    -0.8470 ha         1 LKJ       0.134000
     91 H26          8.4700    -2.9950    -3.1400 ha         1 LKJ       0.132000
     92 H27          9.7340    -0.9320    -3.6710 ha         1 LKJ       0.131000
     93 H28         10.2060     0.7100    -1.8790 ha         1 LKJ       0.132000
     94 H29          9.4190     0.3010     0.4110 ha         1 LKJ       0.134000
     95 H30          6.1100    -2.5630     0.7090 ha         1 LKJ       0.139000
     96 H33          4.8230     3.3310    -1.5940 h1         1 LKJ       0.082700
     97 H34          6.9230     2.4830    -2.3290 hc         1 LKJ       0.050200
     98 H34A         7.2600     1.7450    -0.7670 hc         1 LKJ       0.050200
     99 H35          5.3780     0.6810    -2.9120 hc         1 LKJ       0.056200
    100 H35A         6.6630    -0.1890    -2.0650 hc         1 LKJ       0.056200
    101 H36          5.4280    -0.1630     0.0150 h1         1 LKJ       0.053700
    102 H36A         4.1410    -0.4320    -1.1630 h1         1 LKJ       0.053700
    103 H37          6.2040     2.8100     1.0800 h1         1 LKJ       0.045200
    104 H37A         4.7370     3.7660     0.8760 h1         1 LKJ       0.045200
    105 H38          8.2770     3.7670     0.4430 h1         1 LKJ       0.034450
    106 H38A         7.9480     4.1480    -1.2460 h1         1 LKJ       0.034450
    107 H39          9.3540     5.8100     0.5690 hc         1 LKJ       0.044950
    108 H39A         8.6970     6.3690    -0.9560 hc         1 LKJ       0.044950
    109 H40          7.7610     7.2640     1.5820 hc         1 LKJ       0.044950
    110 H40A         6.8700     7.4070     0.0720 hc         1 LKJ       0.044950
    111 H41          5.3590     6.0190     1.3410 h1         1 LKJ       0.034450
    112 H41A         6.6990     5.1790     2.1360 h1         1 LKJ       0.034450
    113 H42          0.4320     1.6070    -0.6090 ha         1 LKJ       0.176000
    114 H43         -1.6510     1.9200     0.4130 ha         1 LKJ       0.174000
    115 H46         -6.0690     4.0590    -0.4420 h1         1 LKJ       0.070700
    116 H47         -8.0680     2.1440     0.8240 hc         1 LKJ       0.050700
    117 H48         -8.0440     5.1880     0.6650 hc         1 LKJ       0.046450
    118 H48A        -9.1570     4.1400    -0.1920 hc         1 LKJ       0.046450
    119 H49        -10.2130     5.0730     1.8360 hc         1 LKJ       0.025950
    120 H49A       -10.1090     3.3260     1.9300 hc         1 LKJ       0.025950
    121 H50         -8.2310     5.3120     3.2870 hc         1 LKJ       0.024200
    122 H50A        -9.4240     4.3060     4.0900 hc         1 LKJ       0.024200
    123 H51         -7.1300     3.3180     4.2640 hc         1 LKJ       0.025950
    124 H51A        -8.2230     2.2610     3.3900 hc         1 LKJ       0.025950
    125 H52         -6.0560     2.3990     2.2370 hc         1 LKJ       0.046450
    126 H52A        -6.1750     4.1450     2.1290 hc         1 LKJ       0.046450
@<TRIPOS>BOND
     1     1     2 1   
     2     1     3 2   
     3     1    25 1   
     4     2     4 1   
     5     2    13 1   
     6     4     7 1   
     7     4    16 1   
     8     4    68 1   
     9     5    16 1   
    10     5    19 1   
    11     5    24 1   
    12     6    31 2   
    13     7    10 1   
    14     7    69 1   
    15     7    70 1   
    16     8    31 1   
    17     8    32 1   
    18     8    71 1   
    19     9    46 2   
    20    10    13 1   
    21    10    72 1   
    22    10    73 1   
    23    11    30 ar  
    24    11    45 ar  
    25    12    67 1   
    26    13    74 1   
    27    13    75 1   
    28    14    46 1   
    29    14    47 1   
    30    14    50 1   
    31    15    67 1   
    32    16    76 1   
    33    16    77 1   
    34    17    51 1   
    35    17    52 1   
    36    17    55 1   
    37    18    59 2   
    38    19    21 2   
    39    19    78 1   
    40    20    59 1   
    41    20    60 1   
    42    20    79 1   
    43    21    23 1   
    44    21    80 1   
    45    22    25 ar  
    46    22    58 ar  
    47    23    24 2   
    48    23    81 1   
    49    24    82 1   
    50    25    26 ar  
    51    26    27 ar  
    52    26    83 1   
    53    27    28 1   
    54    27    57 ar  
    55    28    29 ar  
    56    28    56 ar  
    57    29    30 ar  
    58    29    84 1   
    59    30    31 1   
    60    32    33 1   
    61    32    85 1   
    62    32    86 1   
    63    33    34 ar  
    64    33    44 ar  
    65    34    35 ar  
    66    34    87 1   
    67    35    36 ar  
    68    35    88 1   
    69    36    37 ar  
    70    36    89 1   
    71    37    38 1   
    72    37    44 ar  
    73    38    39 ar  
    74    38    43 ar  
    75    39    40 ar  
    76    39    90 1   
    77    40    41 ar  
    78    40    91 1   
    79    41    42 ar  
    80    41    92 1   
    81    42    43 ar  
    82    42    93 1   
    83    43    94 1   
    84    44    95 1   
    85    45    46 1   
    86    45    56 ar  
    87    47    48 1   
    88    47    51 1   
    89    47    96 1   
    90    48    49 1   
    91    48    97 1   
    92    48    98 1   
    93    49    50 1   
    94    49    99 1   
    95    49   100 1   
    96    50   101 1   
    97    50   102 1   
    98    51   103 1   
    99    51   104 1   
   100    52    53 1   
   101    52   105 1   
   102    52   106 1   
   103    53    54 1   
   104    53   107 1   
   105    53   108 1   
   106    54    55 1   
   107    54   109 1   
   108    54   110 1   
   109    55   111 1   
   110    55   112 1   
   111    56   113 1   
   112    57    58 ar  
   113    57   114 1   
   114    58    59 1   
   115    60    61 1   
   116    60    67 1   
   117    60   115 1   
   118    61    62 1   
   119    61    66 1   
   120    61   116 1   
   121    62    63 1   
   122    62   117 1   
   123    62   118 1   
   124    63    64 1   
   125    63   119 1   
   126    63   120 1   
   127    64    65 1   
   128    64   121 1   
   129    64   122 1   
   130    65    66 1   
   131    65   123 1   
   132    65   124 1   
   133    66   125 1   
   134    66   126 1   
@<TRIPOS>SUBSTRUCTURE
     1 LKJ         1 TEMP              0 ****  ****    0 ROOT
