@<TRIPOS>MOLECULE
LKJ
  126   134     1     0     0
SMALL
No Charge or Current Charge


@<TRIPOS>ATOM
      1 C1          -4.4040    -2.7680    -0.7870 c          1 LKJ       0.512600
      2 N1          -5.7100    -2.7280    -1.3510 n          1 LKJ      -0.384800
      3 O1          -3.9310    -3.8490    -0.4420 o          1 LKJ      -0.627100
      4 C2          -6.5390    -3.9590    -1.4620 c5         1 LKJ       0.087700
      5 N2          -7.9430    -5.6470    -0.1870 na         1 LKJ       0.031000
      6 O2           2.0060    -3.6370     2.2950 o          1 LKJ      -0.602100
      7 C3          -7.6820    -3.4830    -2.4030 c5         1 LKJ      -0.089400
      8 N3           3.9620    -2.4880     2.1090 ns         1 LKJ      -0.495900
      9 O3           2.6600     2.8410    -0.7170 o          1 LKJ      -0.592100
     10 C4          -6.9140    -2.5660    -3.3760 c5         1 LKJ      -0.097400
     11 N4           2.7620    -0.4640     0.7210 nb         1 LKJ      -0.677000
     12 O4          -7.6590     3.9130    -2.6380 o          1 LKJ      -0.724000
     13 C5          -6.0810    -1.7230    -2.3810 c5         1 LKJ       0.103000
     14 N5           4.5400     1.5410    -0.5190 n          1 LKJ      -0.399800
     15 O5          -8.2400     1.9750    -1.9010 o          1 LKJ      -0.724000
     16 C6          -7.0810    -4.4590    -0.1000 c3         1 LKJ       0.054600
     17 N6           6.2940     4.9340     0.1900 n3         1 LKJ      -0.718600
     18 O6          -3.8300     3.3120    -0.0950 o          1 LKJ      -0.640100
     19 C7          -7.4840    -6.9560    -0.3560 cc         1 LKJ      -0.197500
     20 N7          -5.7260     2.1130    -0.5150 ns         1 LKJ      -0.429900
     21 C8          -8.5990    -7.7450    -0.3950 cd         1 LKJ      -0.193500
     22 N8          -4.2950    -0.2560    -0.5330 nb         1 LKJ      -0.637000
     23 C9          -9.7380    -6.9320    -0.2500 cd         1 LKJ      -0.193500
     24 C10         -9.3380    -5.6310    -0.1210 cc         1 LKJ      -0.197500
     25 C11         -3.6350    -1.4510    -0.5490 ca         1 LKJ       0.295500
     26 C12         -2.2480    -1.5120    -0.2950 ca         1 LKJ      -0.099000
     27 C13         -1.4990    -0.3380    -0.0440 cp         1 LKJ      -0.046000
     28 C14         -0.0260    -0.3850     0.2180 cp         1 LKJ      -0.008000
     29 C15          0.5700    -1.4650     0.9140 ca         1 LKJ      -0.080000
     30 C16          1.9560    -1.4760     1.1540 ca         1 LKJ       0.276500
     31 C17          2.6080    -2.6410     1.9060 c          1 LKJ       0.508600
     32 C18          4.8610    -3.4590     2.7160 c3         1 LKJ       0.156300
     33 C19          6.2790    -2.9030     2.7200 ca         1 LKJ      -0.107300
     34 C20          6.9660    -2.6990     3.9310 ca         1 LKJ      -0.091000
     35 C21          8.2500    -2.1310     3.9250 ca         1 LKJ      -0.112000
     36 C22          8.8490    -1.7540     2.7110 ca         1 LKJ      -0.095000
     37 C23          8.1820    -1.9500     1.4770 cp         1 LKJ      -0.039000
     38 C24          8.8060    -1.5310     0.1830 cp         1 LKJ      -0.036000
     39 C25          8.6460    -2.3060    -0.9930 ca         1 LKJ      -0.101000
     40 C26          9.2260    -1.9060    -2.2100 ca         1 LKJ      -0.112500
     41 C27          9.9730    -0.7190    -2.2770 ca         1 LKJ      -0.109000
     42 C28         10.1430     0.0650    -1.1250 ca         1 LKJ      -0.112500
     43 C29          9.5680    -0.3380     0.0930 ca         1 LKJ      -0.101000
     44 C30          6.8940    -2.5390     1.5060 ca         1 LKJ      -0.091000
     45 C31          2.2280     0.5820     0.0270 ca         1 LKJ       0.294500
     46 C32          3.1320     1.7380    -0.4510 c          1 LKJ       0.512600
     47 C33          5.4700     2.6760    -0.7970 c5         1 LKJ       0.109700
     48 C34          6.7780     1.9140    -1.1800 c5         1 LKJ      -0.089400
     49 C35          6.2210     0.6780    -1.9120 c5         1 LKJ      -0.104400
     50 C36          5.1190     0.2380    -0.9270 c5         1 LKJ       0.116000
     51 C37          5.6430     3.6180     0.4360 c3         1 LKJ       0.162800
     52 C38          7.7160     4.9120    -0.2310 c5         1 LKJ       0.161800
     53 C39          8.1610     6.3990    -0.0910 c5         1 LKJ      -0.081400
     54 C40          7.0280     7.0610     0.7500 c5         1 LKJ      -0.081400
     55 C41          6.3030     5.8400     1.3550 c5         1 LKJ       0.161800
     56 C42          0.8400     0.6470    -0.2180 ca         1 LKJ      -0.081000
     57 C43         -2.2150     0.8810    -0.0520 ca         1 LKJ      -0.085000
     58 C44         -3.6020     0.8950    -0.2930 ca         1 LKJ       0.301500
     59 C45         -4.3660     2.2230    -0.2850 c          1 LKJ       0.491600
     60 C46         -6.7050     3.2270    -0.5510 c3         1 LKJ      -0.035300
     61 C47         -7.4800     3.3900     0.8030 c6         1 LKJ      -0.056700
     62 C48         -8.4840     4.5810     0.7480 c6         1 LKJ      -0.071400
     63 C49         -9.2630     4.7430     2.0770 c6         1 LKJ      -0.072900
     64 C50         -8.3010     4.9060     3.2760 c6         1 LKJ      -0.072400
     65 C51         -7.3110     3.7210     3.3520 c6         1 LKJ      -0.072900
     66 C52         -6.5270     3.5540     2.0270 c6         1 LKJ      -0.071400
     67 C53         -7.6410     3.0370    -1.7840 c          1 LKJ       0.715000
     68 H2          -5.9600    -4.7660    -1.9330 h1         1 LKJ       0.064700
     69 H3          -8.1790    -4.3180    -2.9120 hc         1 LKJ       0.058700
     70 H3A         -8.4540    -2.9250    -1.8600 hc         1 LKJ       0.058700
     71 HN3          4.3500    -1.6190     1.7560 hn         1 LKJ       0.346500
     72 H4          -6.2690    -3.1450    -4.0480 hc         1 LKJ       0.055200
     73 H4A         -7.5750    -1.9510    -3.9980 hc         1 LKJ       0.055200
     74 H5          -6.6830    -0.9180    -1.9370 h1         1 LKJ       0.083700
     75 H5A         -5.2090    -1.2720    -2.8740 h1         1 LKJ       0.083700
     76 H6          -6.2350    -4.7040     0.5530 h1         1 LKJ       0.078200
     77 H6A         -7.6440    -3.6500     0.3810 h1         1 LKJ       0.078200
     78 H7          -6.4320    -7.2030    -0.4340 h4         1 LKJ       0.146500
     79 HN7         -6.0640     1.1690    -0.6770 hn         1 LKJ       0.345500
     80 H8          -8.6030    -8.8250    -0.5180 ha         1 LKJ       0.122500
     81 H9         -10.7680    -7.2790    -0.2430 ha         1 LKJ       0.122500
     82 H10         -9.9110    -4.7200     0.0070 h4         1 LKJ       0.146500
     83 H12         -1.7500    -2.4770    -0.3130 ha         1 LKJ       0.140000
     84 H15         -0.0400    -2.2830     1.2840 ha         1 LKJ       0.158000
     85 H18          4.5260    -3.6690     3.7410 h1         1 LKJ       0.057700
     86 H18A         4.8290    -4.3930     2.1400 h1         1 LKJ       0.057700
     87 H20          6.5030    -2.9710     4.8780 ha         1 LKJ       0.117000
     88 H21          8.7780    -1.9740     4.8630 ha         1 LKJ       0.114000
     89 H22          9.8440    -1.3150     2.7270 ha         1 LKJ       0.115000
     90 H25          8.0770    -3.2320    -0.9590 ha         1 LKJ       0.116000
     91 H26          9.0940    -2.5170    -3.1010 ha         1 LKJ       0.114000
     92 H27         10.4180    -0.4080    -3.2190 ha         1 LKJ       0.113000
     93 H28         10.7180     0.9880    -1.1750 ha         1 LKJ       0.114000
     94 H29          9.7000     0.2890     0.9710 ha         1 LKJ       0.116000
     95 H30          6.3540    -2.6860     0.5730 ha         1 LKJ       0.121000
     96 H33          5.0980     3.2690    -1.6440 h1         1 LKJ       0.082700
     97 H34          7.4410     2.4980    -1.8250 hc         1 LKJ       0.050200
     98 H34A         7.3540     1.6210    -0.2930 hc         1 LKJ       0.050200
     99 H35          5.8030     0.9440    -2.8900 hc         1 LKJ       0.056200
    100 H35A         6.9750    -0.0990    -2.0730 hc         1 LKJ       0.056200
    101 H36          5.5410    -0.2880    -0.0600 h1         1 LKJ       0.053700
    102 H36A         4.3900    -0.4210    -1.4170 h1         1 LKJ       0.053700
    103 H37          6.1840     3.0690     1.2200 h1         1 LKJ       0.045200
    104 H37A         4.6390     3.8100     0.8350 h1         1 LKJ       0.045200
    105 H38          8.3130     4.2640     0.4260 h1         1 LKJ       0.034450
    106 H38A         7.8410     4.5630    -1.2640 h1         1 LKJ       0.034450
    107 H39          9.1340     6.4690     0.4080 hc         1 LKJ       0.044950
    108 H39A         8.2630     6.8850    -1.0680 hc         1 LKJ       0.044950
    109 H40          7.4130     7.7410     1.5180 hc         1 LKJ       0.044950
    110 H40A         6.3510     7.6390     0.1110 hc         1 LKJ       0.044950
    111 H41          5.2910     6.0920     1.7010 h1         1 LKJ       0.034450
    112 H41A         6.8630     5.4120     2.1990 h1         1 LKJ       0.034450
    113 H42          0.4410     1.4930    -0.7700 ha         1 LKJ       0.158000
    114 H43         -1.7030     1.8180     0.1490 ha         1 LKJ       0.156000
    115 H46         -6.1530     4.1590    -0.7250 h1         1 LKJ       0.070700
    116 H47         -8.0550     2.4630     0.9420 hc         1 LKJ       0.050700
    117 H48         -7.9440     5.5120     0.5250 hc         1 LKJ       0.046450
    118 H48A        -9.2050     4.4370    -0.0680 hc         1 LKJ       0.046450
    119 H49         -9.9290     5.6140     2.0140 hc         1 LKJ       0.025950
    120 H49A        -9.9090     3.8680     2.2360 hc         1 LKJ       0.025950
    121 H50         -7.7450     5.8490     3.1800 hc         1 LKJ       0.024200
    122 H50A        -8.8750     4.9730     4.2090 hc         1 LKJ       0.024200
    123 H51         -6.6080     3.8770     4.1820 hc         1 LKJ       0.025950
    124 H51A        -7.8580     2.7950     3.5770 hc         1 LKJ       0.025950
    125 H52         -5.8670     2.6810     2.1190 hc         1 LKJ       0.046450
    126 H52A        -5.8730     4.4240     1.8750 hc         1 LKJ       0.046450
@<TRIPOS>BOND
     1     1     2 1   
     2     1     3 2   
     3     1    25 1   
     4     2     4 1   
     5     2    13 1   
     6     4     7 1   
     7     4    16 1   
     8     4    68 1   
     9     5    16 1   
    10     5    19 1   
    11     5    24 1   
    12     6    31 2   
    13     7    10 1   
    14     7    69 1   
    15     7    70 1   
    16     8    31 1   
    17     8    32 1   
    18     8    71 1   
    19     9    46 2   
    20    10    13 1   
    21    10    72 1   
    22    10    73 1   
    23    11    30 ar  
    24    11    45 ar  
    25    12    67 1   
    26    13    74 1   
    27    13    75 1   
    28    14    46 1   
    29    14    47 1   
    30    14    50 1   
    31    15    67 1   
    32    16    76 1   
    33    16    77 1   
    34    17    51 1   
    35    17    52 1   
    36    17    55 1   
    37    18    59 2   
    38    19    21 2   
    39    19    78 1   
    40    20    59 1   
    41    20    60 1   
    42    20    79 1   
    43    21    23 1   
    44    21    80 1   
    45    22    25 ar  
    46    22    58 ar  
    47    23    24 2   
    48    23    81 1   
    49    24    82 1   
    50    25    26 ar  
    51    26    27 ar  
    52    26    83 1   
    53    27    28 1   
    54    27    57 ar  
    55    28    29 ar  
    56    28    56 ar  
    57    29    30 ar  
    58    29    84 1   
    59    30    31 1   
    60    32    33 1   
    61    32    85 1   
    62    32    86 1   
    63    33    34 ar  
    64    33    44 ar  
    65    34    35 ar  
    66    34    87 1   
    67    35    36 ar  
    68    35    88 1   
    69    36    37 ar  
    70    36    89 1   
    71    37    38 1   
    72    37    44 ar  
    73    38    39 ar  
    74    38    43 ar  
    75    39    40 ar  
    76    39    90 1   
    77    40    41 ar  
    78    40    91 1   
    79    41    42 ar  
    80    41    92 1   
    81    42    43 ar  
    82    42    93 1   
    83    43    94 1   
    84    44    95 1   
    85    45    46 1   
    86    45    56 ar  
    87    47    48 1   
    88    47    51 1   
    89    47    96 1   
    90    48    49 1   
    91    48    97 1   
    92    48    98 1   
    93    49    50 1   
    94    49    99 1   
    95    49   100 1   
    96    50   101 1   
    97    50   102 1   
    98    51   103 1   
    99    51   104 1   
   100    52    53 1   
   101    52   105 1   
   102    52   106 1   
   103    53    54 1   
   104    53   107 1   
   105    53   108 1   
   106    54    55 1   
   107    54   109 1   
   108    54   110 1   
   109    55   111 1   
   110    55   112 1   
   111    56   113 1   
   112    57    58 ar  
   113    57   114 1   
   114    58    59 1   
   115    60    61 1   
   116    60    67 1   
   117    60   115 1   
   118    61    62 1   
   119    61    66 1   
   120    61   116 1   
   121    62    63 1   
   122    62   117 1   
   123    62   118 1   
   124    63    64 1   
   125    63   119 1   
   126    63   120 1   
   127    64    65 1   
   128    64   121 1   
   129    64   122 1   
   130    65    66 1   
   131    65   123 1   
   132    65   124 1   
   133    66   125 1   
   134    66   126 1   
@<TRIPOS>SUBSTRUCTURE
     1 LKJ         1 TEMP              0 ****  ****    0 ROOT
