@<TRIPOS>MOLECULE
LKK
   46    47     1     0     0
SMALL
No Charge or Current Charge


@<TRIPOS>ATOM
      1 C5           5.7780     0.2900     1.2260 ca         1 LKK      -0.090000
      2 C4           5.7090    -1.1090     1.1290 ca         1 LKK      -0.008900
      3 C6           4.6000     1.0560     1.1890 ca         1 LKK      -0.082000
      4 C3           4.4640    -1.7450     0.9970 ca         1 LKK      -0.090000
      5 C7          -3.9220    -1.9130     2.0560 c3         1 LKK      -0.088100
      6 C2           3.2850    -0.9800     0.9600 ca         1 LKK      -0.082000
      7 C1           3.3450     0.4280     1.0510 ca         1 LKK      -0.097300
      8 C12         -0.5170     0.0720    -1.1730 cc         1 LKK       0.205300
      9 C13         -0.0210     0.1220     0.0930 cd         1 LKK      -0.208000
     10 C14         -1.7660    -0.6280    -1.6500 c3         1 LKK       0.100700
     11 C16         -4.1250    -1.0450    -0.8600 c          1 LKK       0.631100
     12 C19         -5.2710    -0.6720     0.1170 c3         1 LKK      -0.354000
     13 C20         -6.6300    -0.8220    -0.6870 c3         1 LKK      -0.038900
     14 C21         -5.2650    -1.6910     1.3170 c3         1 LKK      -0.038900
     15 C8           2.0700     1.2710     1.0170 c3         1 LKK       0.131900
     16 C9          -7.9680    -0.5530     0.0460 c3         1 LKK      -0.088100
     17 N10          1.2840     1.2720    -1.3440 nd         1 LKK      -0.212800
     18 N11          0.2850     0.7740    -2.0280 nc         1 LKK      -0.326000
     19 N15         -2.9330    -0.3650    -0.8010 ns         1 LKK      -0.517900
     20 N9           1.1180     0.8840    -0.0390 na         1 LKK       0.114800
     21 O1          -6.1410     1.2470     1.7080 o          1 LKK      -0.679200
     22 O18         -4.2620    -1.9250    -1.7010 o          1 LKK      -0.668100
     23 O24         -3.7330     1.1650     1.2430 o          1 LKK      -0.679200
     24 S22         -5.0930     1.0720     0.6940 s6         1 LKK       1.306600
     25 Br1          7.3120    -2.1510     1.1800 br         1 LKK      -0.107100
     26 H1           6.7430     0.7820     1.3310 ha         1 LKK       0.129000
     27 H2           4.6650     2.1400     1.2660 ha         1 LKK       0.124000
     28 H3           4.4100    -2.8290     0.9240 ha         1 LKK       0.129000
     29 H4          -3.1290    -2.2270     1.3680 hc         1 LKK       0.030533
     30 H5          -3.5960    -1.0110     2.5840 hc         1 LKK       0.030533
     31 H6          -4.0400    -2.7040     2.8060 hc         1 LKK       0.030533
     32 H7           2.3270    -1.4850     0.8620 ha         1 LKK       0.124000
     33 H8          -0.3710    -0.3030     1.0250 h4         1 LKK       0.161000
     34 H9          -1.9990    -0.3080    -2.6740 h1         1 LKK       0.047700
     35 H10         -1.5750    -1.7090    -1.6660 h1         1 LKK       0.047700
     36 H11         -6.5990    -0.1880    -1.5820 hc         1 LKK       0.043200
     37 H12         -6.7020    -1.8500    -1.0640 hc         1 LKK       0.043200
     38 H13         -5.5850    -2.6710     0.9390 hc         1 LKK       0.043200
     39 H14         -6.0150    -1.4010     2.0620 hc         1 LKK       0.043200
     40 H15          1.5620     1.1880     1.9850 h1         1 LKK       0.072200
     41 H16          2.3260     2.3270     0.8720 h1         1 LKK       0.072200
     42 H17         -8.8050    -0.8700    -0.5870 hc         1 LKK       0.030533
     43 H18         -8.0370    -1.1100     0.9860 hc         1 LKK       0.030533
     44 H19         -8.1100     0.5140     0.2510 hc         1 LKK       0.030533
     45 H20         -2.8520     0.3330    -0.0650 hn         1 LKK       0.382500
     46 O2          -5.2920     1.8680    -0.5230 o          1 LKK      -0.679200
@<TRIPOS>BOND
     1     1     2 ar  
     2     1     3 ar  
     3     1    26 1   
     4     2     4 ar  
     5     2    25 1   
     6     3     7 ar  
     7     3    27 1   
     8     4     6 ar  
     9     4    28 1   
    10     5    14 1   
    11     5    29 1   
    12     5    30 1   
    13     5    31 1   
    14     6     7 ar  
    15     6    32 1   
    16     7    15 1   
    17     8     9 2   
    18     8    10 1   
    19     8    18 1   
    20     9    20 1   
    21     9    33 1   
    22    10    19 1   
    23    10    34 1   
    24    10    35 1   
    25    11    12 1   
    26    11    19 1   
    27    11    22 2   
    28    12    13 1   
    29    12    14 1   
    30    12    24 1   
    31    13    16 1   
    32    13    36 1   
    33    13    37 1   
    34    14    38 1   
    35    14    39 1   
    36    15    20 1   
    37    15    40 1   
    38    15    41 1   
    39    16    42 1   
    40    16    43 1   
    41    16    44 1   
    42    17    18 2   
    43    17    20 1   
    44    19    45 1   
    45    21    24 1   
    46    23    24 1   
    47    24    46 1   
@<TRIPOS>SUBSTRUCTURE
     1 LKK         1 TEMP              0 ****  ****    0 ROOT
