@<TRIPOS>MOLECULE
LKK
   46    47     1     0     0
SMALL
bcc


@<TRIPOS>ATOM
      1 C5           5.4950     0.9950     0.1180 ca         1 LKK      -0.108000
      2 C4           5.9700    -0.2910    -0.0890 ca         1 LKK      -0.008900
      3 C6           4.2830     1.1670     0.7730 ca         1 LKK      -0.100000
      4 C3           5.2580    -1.3990     0.3490 ca         1 LKK      -0.108000
      5 C7          -4.6310    -1.2490     2.3880 c3         1 LKK      -0.088100
      6 C2           4.0510    -1.2060     1.0040 ca         1 LKK      -0.100000
      7 C1           3.5530     0.0740     1.2220 ca         1 LKK      -0.097300
      8 C12         -0.5120    -0.4350    -0.2610 cc         1 LKK       0.270600
      9 C13          0.2820    -0.8490     0.7780 cd         1 LKK      -0.240600
     10 C14         -1.6590    -1.1300    -0.9040 c3         1 LKK       0.100700
     11 C16         -4.0770    -1.1850    -0.6460 c          1 LKK       0.698100
     12 C19         -5.3590    -0.5690    -0.0400 c3         1 LKK      -0.243200
     13 C20         -6.4940    -0.8080    -1.0620 c3         1 LKK      -0.038900
     14 C21         -5.6680    -1.3150     1.2730 c3         1 LKK      -0.038900
     15 C8           2.2310     0.2730     1.9120 c3         1 LKK       0.102600
     16 C9          -7.8890    -0.2930    -0.7270 c3         1 LKK      -0.088100
     17 N10          0.8800     1.1600     0.1280 nd         1 LKK      -0.212800
     18 N11         -0.1040     0.8020    -0.6210 nc         1 LKK      -0.326000
     19 N15         -2.9090    -0.5780    -0.4240 ns         1 LKK      -0.584900
     20 N9           1.1220     0.1790     0.9770 na         1 LKK       0.093400
     21 O1          -6.3720     1.5970     1.1220 o          1 LKK      -0.679200
     22 O18         -4.1510    -2.2360    -1.2720 o          1 LKK      -0.668100
     23 O24         -3.9360     1.4970     0.9560 o          1 LKK      -0.679200
     24 S22         -5.2300     1.2470     0.2620 s6         1 LKK       1.195800
     25 BR1          7.6170    -0.5390    -0.9760 br         1 LKK      -0.107100
     26 H1           6.0510     1.8590    -0.2180 ha         1 LKK       0.147000
     27 H2           3.9120     2.1700     0.9360 ha         1 LKK       0.142000
     28 H3           5.6310    -2.4020     0.1920 ha         1 LKK       0.147000
     29 H4          -3.6490    -1.5930     2.0660 hc         1 LKK       0.030533
     30 H5          -4.5180    -0.2420     2.7840 hc         1 LKK       0.030533
     31 H6          -4.9460    -1.8910     3.2100 hc         1 LKK       0.030533
     32 H7           3.5020    -2.0730     1.3510 ha         1 LKK       0.142000
     33 H8           0.3000    -1.7510     1.3650 h4         1 LKK       0.179000
     34 H9          -1.5900    -1.0320    -1.9920 h1         1 LKK       0.047700
     35 H10         -1.6090    -2.1970    -0.6790 h1         1 LKK       0.047700
     36 H11         -6.1920    -0.4010    -2.0280 hc         1 LKK       0.043200
     37 H12         -6.5570    -1.8880    -1.1970 hc         1 LKK       0.043200
     38 H13         -5.8270    -2.3620     1.0010 hc         1 LKK       0.043200
     39 H14         -6.6240    -0.9600     1.6580 hc         1 LKK       0.043200
     40 H15          2.0690    -0.4800     2.6800 h1         1 LKK       0.072200
     41 H16          2.1820     1.2500     2.3920 h1         1 LKK       0.072200
     42 H17         -8.5910    -0.6940    -1.4590 hc         1 LKK       0.030533
     43 H18         -8.2320    -0.6160     0.2560 hc         1 LKK       0.030533
     44 H19         -7.9600     0.7910    -0.7660 hc         1 LKK       0.030533
     45 H20         -2.9090     0.2810     0.1230 hn         1 LKK       0.382500
     46 O2          -5.2670     1.8630    -1.0750 o          1 LKK      -0.679200
@<TRIPOS>BOND
     1     1     2 ar  
     2     1     3 ar  
     3     1    26 1   
     4     2     4 ar  
     5     2    25 1   
     6     3     7 ar  
     7     3    27 1   
     8     4     6 ar  
     9     4    28 1   
    10     5    14 1   
    11     5    29 1   
    12     5    30 1   
    13     5    31 1   
    14     6     7 ar  
    15     6    32 1   
    16     7    15 1   
    17     8     9 2   
    18     8    10 1   
    19     8    18 1   
    20     9    20 1   
    21     9    33 1   
    22    10    19 1   
    23    10    34 1   
    24    10    35 1   
    25    11    12 1   
    26    11    19 1   
    27    11    22 2   
    28    12    13 1   
    29    12    14 1   
    30    12    24 1   
    31    13    16 1   
    32    13    36 1   
    33    13    37 1   
    34    14    38 1   
    35    14    39 1   
    36    15    20 1   
    37    15    40 1   
    38    15    41 1   
    39    16    42 1   
    40    16    43 1   
    41    16    44 1   
    42    17    18 2   
    43    17    20 1   
    44    19    45 1   
    45    21    24 1   
    46    23    24 1   
    47    24    46 1   
@<TRIPOS>SUBSTRUCTURE
     1 LKK         1 TEMP              0 ****  ****    0 ROOT
