@<TRIPOS>MOLECULE
LKL
   23    23     1     0     0
SMALL
No Charge or Current Charge


@<TRIPOS>ATOM
      1 N1          64.3010     0.3670    78.2520 nh         1 LKL      -0.780300
      2 C4          64.5420    -1.0190    78.0640 ca         1 LKL       0.599900
      3 C5          65.7760    -2.5760    76.8650 ca         1 LKL       0.388900
      4 C6          65.1690    -3.6600    77.5330 ca         1 LKL       0.027000
      5 C7          64.2060    -3.3960    78.5190 ca         1 LKL      -0.078000
      6 C8          63.8860    -2.0570    78.7930 ca         1 LKL       0.068000
      7 C1          65.3400     1.3790    77.9350 c3         1 LKL       0.213100
      8 C2          62.9300     0.8840    78.5090 c3         1 LKL       0.218800
      9 C3          62.7070     1.4470    79.9400 c3         1 LKL       0.148600
     10 O1          61.3560     1.9140    80.1030 oh         1 LKL      -0.663000
     11 N2          65.4760    -1.2790    77.1210 nb         1 LKL      -0.735000
     12 Cl1         65.6110    -5.3220    77.1490 cl         1 LKL      -0.181000
     13 F1          62.9780    -1.7960    79.7670 f          1 LKL      -0.171000
     14 H9          66.5300    -2.7550    76.0990 h4         1 LKL       0.035100
     15 H10         63.7250    -4.2060    79.0600 ha         1 LKL       0.148000
     16 H2          66.3160     1.0680    78.3310 h1         1 LKL       0.043033
     17 H1          65.4250     1.5200    76.8490 h1         1 LKL       0.043033
     18 H3          65.0930     2.3490    78.3870 h1         1 LKL       0.043033
     19 H5          62.7070     1.6840    77.7900 h1         1 LKL       0.062200
     20 H4          62.1870     0.0980    78.3220 h1         1 LKL       0.062200
     21 H6          62.9270     0.6600    80.6740 h1         1 LKL       0.029200
     22 H7          63.4140     2.2690    80.1150 h1         1 LKL       0.029200
     23 H8          61.2780     2.2510    81.0250 ho         1 LKL       0.449000
@<TRIPOS>BOND
     1     1     2 1   
     2     1     7 1   
     3     1     8 1   
     4     2     6 ar  
     5     2    11 ar  
     6     3     4 ar  
     7     3    11 ar  
     8     3    14 1   
     9     4     5 ar  
    10     4    12 1   
    11     5     6 ar  
    12     5    15 1   
    13     6    13 1   
    14     7    16 1   
    15     7    17 1   
    16     7    18 1   
    17     8     9 1   
    18     8    19 1   
    19     8    20 1   
    20     9    10 1   
    21     9    21 1   
    22     9    22 1   
    23    10    23 1   
@<TRIPOS>SUBSTRUCTURE
     1 LKL         1 TEMP              0 ****  ****    0 ROOT
