@<TRIPOS>MOLECULE
LKL
   23    23     1     0     0
SMALL
abcg2


@<TRIPOS>ATOM
      1 N1          64.2820     0.3440    78.3420 nh         1 LKL      -0.780300
      2 C4          64.5410    -0.9750    78.1020 ca         1 LKL       0.599900
      3 C5          65.8780    -2.5290    77.0240 ca         1 LKL       0.388900
      4 C6          65.1840    -3.5980    77.5460 ca         1 LKL       0.027000
      5 C7          64.1330    -3.3420    78.4210 ca         1 LKL      -0.078000
      6 C8          63.8340    -2.0380    78.7060 ca         1 LKL       0.068000
      7 C1          65.2310     1.3200    77.8460 c3         1 LKL       0.213100
      8 C2          62.9390     0.8520    78.5760 c3         1 LKL       0.218800
      9 C3          62.7800     1.4010    79.9850 c3         1 LKL       0.148600
     10 O1          61.4780     1.9280    80.0930 oh         1 LKL      -0.663000
     11 N2          65.5520    -1.2720    77.2930 nb         1 LKL      -0.735000
     12 CL1         65.6150    -5.2210    77.1440 cl         1 LKL      -0.181000
     13 F1          62.8740    -1.7910    79.6110 f          1 LKL      -0.171000
     14 H9          66.7220    -2.6840    76.3610 h4         1 LKL       0.035100
     15 H10         63.5790    -4.1410    78.8960 ha         1 LKL       0.148000
     16 H2          66.2490     1.0480    78.1150 h1         1 LKL       0.043033
     17 H1          65.1840     1.4420    76.7600 h1         1 LKL       0.043033
     18 H3          65.0090     2.2810    78.3050 h1         1 LKL       0.043033
     19 H5          62.7440     1.6490    77.8510 h1         1 LKL       0.062200
     20 H4          62.1910     0.0850    78.3800 h1         1 LKL       0.062200
     21 H6          62.9610     0.5990    80.7100 h1         1 LKL       0.029200
     22 H7          63.5450     2.1680    80.1610 h1         1 LKL       0.029200
     23 H8          61.3740     2.2990    80.9740 ho         1 LKL       0.449000
@<TRIPOS>BOND
     1     1     2 1   
     2     1     7 1   
     3     1     8 1   
     4     2     6 ar  
     5     2    11 ar  
     6     3     4 ar  
     7     3    11 ar  
     8     3    14 1   
     9     4     5 ar  
    10     4    12 1   
    11     5     6 ar  
    12     5    15 1   
    13     6    13 1   
    14     7    16 1   
    15     7    17 1   
    16     7    18 1   
    17     8     9 1   
    18     8    19 1   
    19     8    20 1   
    20     9    10 1   
    21     9    21 1   
    22     9    22 1   
    23    10    23 1   
@<TRIPOS>SUBSTRUCTURE
     1 LKL         1 TEMP              0 ****  ****    0 ROOT
