@<TRIPOS>MOLECULE
LKM
   51    53     1     0     0
SMALL
No Charge or Current Charge


@<TRIPOS>ATOM
      1 N31          1.2520   -11.8210   -21.5430 n1         1 LKM      -0.461000
      2 C30          0.7040   -12.8440   -21.6720 cg         1 LKM       0.331000
      3 C27          0.0280   -14.1020   -21.8430 ca         1 LKM       0.004000
      4 C28         -0.7450   -14.6400   -20.7960 ca         1 LKM      -0.088000
      5 C29         -1.4070   -15.8700   -20.9620 ca         1 LKM      -0.064000
      6 C26          0.1310   -14.8050   -23.0590 ca         1 LKM      -0.121000
      7 C25         -0.5300   -16.0330   -23.2220 ca         1 LKM       0.172000
      8 C24         -1.2990   -16.5810   -22.1760 ca         1 LKM      -0.132300
      9 C23         -2.0210   -17.9200   -22.3470 c3         1 LKM       0.214900
     10 O22         -1.8310   -18.7350   -21.1720 os         1 LKM      -0.348100
     11 C20         -0.6040   -19.2490   -20.8030 ca         1 LKM       0.117100
     12 C19          0.5330   -19.1890   -21.6390 ca         1 LKM      -0.201000
     13 C18          1.7560   -19.7300   -21.2060 ca         1 LKM      -0.039000
     14 C21         -0.5060   -19.8630   -19.5440 ca         1 LKM      -0.148000
     15 C15          0.7160   -20.4050   -19.1070 ca         1 LKM       0.030000
     16 C16          1.8530   -20.3380   -19.9400 ca         1 LKM      -0.087000
     17 C17          3.0770   -20.8800   -19.5030 ca         1 LKM       0.020000
     18 C14          0.8090   -21.0160   -17.8440 ca         1 LKM      -0.145000
     19 C13          2.0290   -21.5580   -17.4070 ca         1 LKM       0.013000
     20 C12          3.1670   -21.4890   -18.2350 ca         1 LKM      -0.238500
     21 S11          4.7230   -22.1940   -17.6730 sy         1 LKM       1.113600
     22 O33          5.8130   -21.8170   -18.5740 o          1 LKM      -0.571500
     23 O32          4.8170   -22.0270   -16.2200 o          1 LKM      -0.571500
     24 N            4.4720   -23.8330   -17.8990 n7         1 LKM      -0.826300
     25 CA           3.8730   -24.3280   -19.1860 c3         1 LKM       0.039500
     26 C            4.7950   -24.1110   -20.4500 c          1 LKM       0.714000
     27 OXT          4.3650   -23.4450   -21.3820 o          1 LKM      -0.728500
     28 O            5.9250   -24.5850   -20.4300 o          1 LKM      -0.728500
     29 CB           3.4980   -25.8230   -19.0070 c3         1 LKM      -0.023400
     30 CG           2.6960   -26.4220   -20.1900 c3         1 LKM      -0.199400
     31 CD           2.3000   -27.8740   -19.8780 c          1 LKM       0.715000
     32 OE1          1.2450   -28.0730   -19.2950 o          1 LKM      -0.765000
     33 OE2          3.0760   -28.7640   -20.1870 o          1 LKM      -0.765000
     34 F2          -0.4170   -16.6820   -24.4030 f          1 LKM      -0.175000
     35 H28         -0.8360   -14.1060   -19.8520 ha         1 LKM       0.130000
     36 H26          0.7210   -14.4020   -23.8790 ha         1 LKM       0.139000
     37 H29         -2.0010   -16.2710   -20.1430 ha         1 LKM       0.142000
     38 H231        -3.0910   -17.7200   -22.4900 h1         1 LKM       0.067700
     39 H232        -1.6730   -18.4500   -23.2430 h1         1 LKM       0.067700
     40 H19          0.4890   -18.7340   -22.6230 ha         1 LKM       0.107000
     41 H21         -1.3830   -19.9120   -18.9060 ha         1 LKM       0.119000
     42 H18          2.6270   -19.6780   -21.8570 ha         1 LKM       0.117000
     43 H14         -0.0640   -21.0740   -17.1980 ha         1 LKM       0.106000
     44 H17          3.9510   -20.8310   -20.1510 ha         1 LKM       0.147000
     45 H13          2.0880   -22.0340   -16.4300 ha         1 LKM       0.137000
     46 H            5.4330   -24.1700   -17.8430 hn         1 LKM       0.499000
     47 HA           2.9320   -23.7960   -19.3800 h1         1 LKM       0.038700
     48 HBC1         4.4090   -26.4140   -18.8510 hc         1 LKM       0.030700
     49 HBC2         2.8970   -25.9260   -18.0940 hc         1 LKM       0.030700
     50 HGC1         1.8010   -25.7970   -20.2950 hc         1 LKM       0.032200
     51 HGC2         3.3620   -26.3910   -21.0610 hc         1 LKM       0.032200
@<TRIPOS>BOND
     1     1     2 3   
     2     2     3 1   
     3     3     4 ar  
     4     3     6 ar  
     5     4     5 ar  
     6     4    35 1   
     7     5     8 ar  
     8     5    37 1   
     9     6     7 ar  
    10     6    36 1   
    11     7     8 ar  
    12     7    34 1   
    13     8     9 1   
    14     9    10 1   
    15     9    38 1   
    16     9    39 1   
    17    10    11 1   
    18    11    12 ar  
    19    11    14 ar  
    20    12    13 ar  
    21    12    40 1   
    22    13    16 ar  
    23    13    42 1   
    24    14    15 ar  
    25    14    41 1   
    26    15    16 ar  
    27    15    18 ar  
    28    16    17 ar  
    29    17    20 ar  
    30    17    44 1   
    31    18    19 ar  
    32    18    43 1   
    33    19    20 ar  
    34    19    45 1   
    35    20    21 1   
    36    21    22 2   
    37    21    23 2   
    38    21    24 1   
    39    24    25 1   
    40    24    46 1   
    41    25    26 1   
    42    25    29 1   
    43    25    47 1   
    44    26    27 1   
    45    26    28 1   
    46    29    30 1   
    47    29    48 1   
    48    29    49 1   
    49    30    31 1   
    50    30    50 1   
    51    30    51 1   
    52    31    32 1   
    53    31    33 1   
@<TRIPOS>SUBSTRUCTURE
     1 LKM         1 TEMP              0 ****  ****    0 ROOT
