@<TRIPOS>MOLECULE
LKM
   51    53     1     0     0
SMALL
abcg2


@<TRIPOS>ATOM
      1 N31          1.2080   -11.8110   -21.3640 n1         1 LKM      -0.461000
      2 C30          0.6320   -12.7980   -21.5050 cg         1 LKM       0.331000
      3 C27         -0.0830   -14.0220   -21.6690 ca         1 LKM       0.004000
      4 C28         -0.5870   -14.6850   -20.5520 ca         1 LKM      -0.088000
      5 C29         -1.2620   -15.8800   -20.7200 ca         1 LKM      -0.064000
      6 C26         -0.2590   -14.5480   -22.9460 ca         1 LKM      -0.121000
      7 C25         -0.9360   -15.7420   -23.0690 ca         1 LKM       0.172000
      8 C24         -1.4430   -16.4390   -21.9820 ca         1 LKM      -0.132300
      9 C23         -2.1740   -17.7480   -22.1540 c3         1 LKM       0.214900
     10 O22         -1.9830   -18.6070   -21.0510 os         1 LKM      -0.348100
     11 C20         -0.7590   -19.1310   -20.8250 ca         1 LKM       0.117100
     12 C19          0.3110   -19.0370   -21.7440 ca         1 LKM      -0.201000
     13 C18          1.5220   -19.5940   -21.4390 ca         1 LKM      -0.039000
     14 C21         -0.5850   -19.7890   -19.6290 ca         1 LKM      -0.148000
     15 C15          0.6540   -20.3670   -19.3030 ca         1 LKM       0.030000
     16 C16          1.7320   -20.2670   -20.2180 ca         1 LKM      -0.087000
     17 C17          2.9830   -20.8340   -19.8890 ca         1 LKM       0.020000
     18 C14          0.8660   -21.0430   -18.0730 ca         1 LKM      -0.145000
     19 C13          2.0810   -21.5800   -17.7670 ca         1 LKM       0.013000
     20 C12          3.1440   -21.4730   -18.6940 ca         1 LKM      -0.238500
     21 S11          4.7270   -22.1280   -18.2550 sy         1 LKM       1.113600
     22 O33          5.6230   -21.8850   -19.3810 o          1 LKM      -0.571500
     23 O32          5.1090   -21.6150   -16.9450 o          1 LKM      -0.571500
     24 N            4.3720   -23.7210   -18.0360 n7         1 LKM      -0.826300
     25 CA           4.2910   -24.5570   -19.2440 c3         1 LKM       0.039500
     26 C            5.7020   -25.0300   -19.6740 c          1 LKM       0.714000
     27 OXT          5.9030   -25.1790   -20.8920 o          1 LKM      -0.728500
     28 O            6.4930   -25.2590   -18.7360 o          1 LKM      -0.728500
     29 CB           3.3720   -25.7380   -18.9230 c3         1 LKM      -0.023400
     30 CG           3.0670   -26.6270   -20.1160 c3         1 LKM      -0.199400
     31 CD           2.0560   -27.7630   -19.8570 c          1 LKM       0.715000
     32 OE1          1.7570   -28.4530   -20.8550 o          1 LKM      -0.765000
     33 OE2          1.6250   -27.9110   -18.6960 o          1 LKM      -0.765000
     34 F2          -1.0950   -16.2540   -24.2960 f          1 LKM      -0.175000
     35 H28         -0.4500   -14.2700   -19.5630 ha         1 LKM       0.130000
     36 H26          0.1290   -14.0450   -23.8220 ha         1 LKM       0.139000
     37 H29         -1.6500   -16.3890   -19.8470 ha         1 LKM       0.142000
     38 H231        -3.2490   -17.5640   -22.1920 h1         1 LKM       0.067700
     39 H232        -1.9040   -18.2370   -23.0930 h1         1 LKM       0.067700
     40 H19          0.1990   -18.5400   -22.6980 ha         1 LKM       0.107000
     41 H21         -1.4080   -19.8580   -18.9280 ha         1 LKM       0.119000
     42 H18          2.3380   -19.5170   -22.1470 ha         1 LKM       0.117000
     43 H14          0.0470   -21.1260   -17.3690 ha         1 LKM       0.106000
     44 H17          3.7990   -20.7520   -20.5960 ha         1 LKM       0.147000
     45 H13          2.2250   -22.0930   -16.8260 ha         1 LKM       0.137000
     46 H            5.0460   -24.1280   -17.3880 hn         1 LKM       0.499000
     47 HA           3.8310   -23.9680   -20.0430 h1         1 LKM       0.038700
     48 HBC1         3.8230   -26.3260   -18.1180 hc         1 LKM       0.030700
     49 HBC2         2.4400   -25.3330   -18.5200 hc         1 LKM       0.030700
     50 HGC1         2.6870   -26.0160   -20.9430 hc         1 LKM       0.032200
     51 HGC2         3.9860   -27.0780   -20.5010 hc         1 LKM       0.032200
@<TRIPOS>BOND
     1     1     2 3   
     2     2     3 1   
     3     3     4 ar  
     4     3     6 ar  
     5     4     5 ar  
     6     4    35 1   
     7     5     8 ar  
     8     5    37 1   
     9     6     7 ar  
    10     6    36 1   
    11     7     8 ar  
    12     7    34 1   
    13     8     9 1   
    14     9    10 1   
    15     9    38 1   
    16     9    39 1   
    17    10    11 1   
    18    11    12 ar  
    19    11    14 ar  
    20    12    13 ar  
    21    12    40 1   
    22    13    16 ar  
    23    13    42 1   
    24    14    15 ar  
    25    14    41 1   
    26    15    16 ar  
    27    15    18 ar  
    28    16    17 ar  
    29    17    20 ar  
    30    17    44 1   
    31    18    19 ar  
    32    18    43 1   
    33    19    20 ar  
    34    19    45 1   
    35    20    21 1   
    36    21    22 2   
    37    21    23 2   
    38    21    24 1   
    39    24    25 1   
    40    24    46 1   
    41    25    26 1   
    42    25    29 1   
    43    25    47 1   
    44    26    27 1   
    45    26    28 1   
    46    29    30 1   
    47    29    48 1   
    48    29    49 1   
    49    30    31 1   
    50    30    50 1   
    51    30    51 1   
    52    31    32 1   
    53    31    33 1   
@<TRIPOS>SUBSTRUCTURE
     1 LKM         1 TEMP              0 ****  ****    0 ROOT
