@<TRIPOS>MOLECULE
LKP
   44    47     1     0     0
SMALL
abcg2


@<TRIPOS>ATOM
      1 C4           9.8080    28.4850   161.6430 ca         1 LKP      -0.174300
      2 C14         10.6980    27.6960   163.9070 c3         1 LKP      -0.082400
      3 C5           9.9220    29.8040   161.1640 ca         1 LKP       0.046000
      4 C6           8.9120    30.3820   160.4040 ca         1 LKP      -0.105000
      5 C11         12.0860    31.3590   161.6030 cc         1 LKP       0.284900
      6 C7          11.2120    30.3000   161.6010 cd         1 LKP      -0.197000
      7 C9          13.0370    29.7650   162.7270 cd         1 LKP       0.446400
      8 C12         11.0240    28.0720   162.4500 c5         1 LKP       0.164600
      9 C3           8.6750    27.7680   161.3330 ca         1 LKP       0.191000
     10 C1           7.7790    29.6260   160.1160 ca         1 LKP      -0.072000
     11 C2           7.6520    28.3160   160.5730 ca         1 LKP      -0.156000
     12 N8          11.8350    29.2970   162.3200 na         1 LKP      -0.179500
     13 N10         13.2200    31.0110   162.3080 nc         1 LKP      -0.694000
     14 C15         11.6460    26.6680   164.5040 c3         1 LKP       0.177300
     15 O17         12.9670    27.2220   164.4100 oh         1 LKP      -0.678000
     16 C18         11.2790    26.2970   165.9490 c6         1 LKP      -0.093700
     17 C20          9.9210    25.5830   166.0210 c6         1 LKP      -0.069900
     18 C21          9.5530    25.1790   167.4490 c6         1 LKP      -0.090400
     19 C22         10.6340    24.3220   168.0820 c6         1 LKP       0.168300
     20 C24         11.9800    25.0350   168.0340 c6         1 LKP      -0.090400
     21 C25         12.3570    25.4210   166.6020 c6         1 LKP      -0.069900
     22 O26         10.2310    24.0330   169.4280 oh         1 LKP      -0.664000
     23 F27          8.5550    26.4890   161.7720 f          1 LKP      -0.185000
     24 H1          10.6950    28.6040   164.5160 hc         1 LKP       0.073200
     25 H2           9.6900    27.2900   163.9340 hc         1 LKP       0.073200
     26 H3           9.0000    31.3980   160.0430 ha         1 LKP       0.130000
     27 H4          11.9780    32.3270   161.1430 h4         1 LKP       0.040100
     28 H5          13.7170    29.1850   163.3250 h5         1 LKP       0.074100
     29 H13         11.5430    27.2430   161.9650 h1         1 LKP       0.084700
     30 H6           6.9800    30.0550   159.5260 ha         1 LKP       0.121000
     31 H7           6.7760    27.7220   160.3490 ha         1 LKP       0.134000
     32 H16         11.6070    25.7560   163.8930 h1         1 LKP       0.031700
     33 H8          13.6110    26.5160   164.5360 ho         1 LKP       0.446000
     34 H19         11.2120    27.2310   166.5220 hc         1 LKP       0.065700
     35 H9           9.1290    26.2130   165.6170 hc         1 LKP       0.042200
     36 H10          9.9650    24.6880   165.3890 hc         1 LKP       0.042200
     37 H11          9.4230    26.0770   168.0630 hc         1 LKP       0.052950
     38 H12          8.6030    24.6390   167.4560 hc         1 LKP       0.052950
     39 H23         10.7160    23.3800   167.5210 h1         1 LKP       0.028700
     40 H14         12.7540    24.3980   168.4720 hc         1 LKP       0.052950
     41 H15         11.9100    25.9360   168.6530 hc         1 LKP       0.052950
     42 H17         12.4930    24.5130   166.0020 hc         1 LKP       0.042200
     43 H18         13.3160    25.9420   166.6160 hc         1 LKP       0.042200
     44 H20         10.9030    23.4660   169.8280 ho         1 LKP       0.441000
@<TRIPOS>BOND
     1     1     3 ar  
     2     1     8 1   
     3     1     9 ar  
     4     2     8 1   
     5     2    14 1   
     6     2    24 1   
     7     2    25 1   
     8     3     4 ar  
     9     3     6 1   
    10     4    10 ar  
    11     4    26 1   
    12     5     6 2   
    13     5    13 1   
    14     5    27 1   
    15     6    12 1   
    16     7    12 1   
    17     7    13 2   
    18     7    28 1   
    19     8    12 1   
    20     8    29 1   
    21     9    11 ar  
    22     9    23 1   
    23    10    11 ar  
    24    10    30 1   
    25    11    31 1   
    26    14    15 1   
    27    14    16 1   
    28    14    32 1   
    29    15    33 1   
    30    16    17 1   
    31    16    21 1   
    32    16    34 1   
    33    17    18 1   
    34    17    35 1   
    35    17    36 1   
    36    18    19 1   
    37    18    37 1   
    38    18    38 1   
    39    19    20 1   
    40    19    22 1   
    41    19    39 1   
    42    20    21 1   
    43    20    40 1   
    44    20    41 1   
    45    21    42 1   
    46    21    43 1   
    47    22    44 1   
@<TRIPOS>SUBSTRUCTURE
     1 LKP         1 TEMP              0 ****  ****    0 ROOT
