@<TRIPOS>MOLECULE
LKP
   44    47     1     0     0
SMALL
No Charge or Current Charge


@<TRIPOS>ATOM
      1 C4           9.8230    28.4940   161.5540 ca         1 LKP      -0.174300
      2 C14         10.7020    27.6730   163.8540 c3         1 LKP      -0.082400
      3 C5           9.9010    29.8210   161.1080 ca         1 LKP       0.046000
      4 C6           8.9120    30.4180   160.3200 ca         1 LKP      -0.105000
      5 C11         11.9260    31.4460   161.6210 cc         1 LKP       0.284900
      6 C7          11.1470    30.3300   161.6140 cd         1 LKP      -0.197000
      7 C9          12.9780    29.9010   162.7620 cd         1 LKP       0.446400
      8 C12         11.0600    28.0990   162.4040 c5         1 LKP       0.164600
      9 C3           8.7180    27.7130   161.1850 ca         1 LKP       0.191000
     10 C1           7.7950    29.6340   159.9630 ca         1 LKP      -0.072000
     11 C2           7.7030    28.2870   160.3920 ca         1 LKP      -0.156000
     12 N8          11.7770    29.3760   162.3160 na         1 LKP      -0.179500
     13 N10         13.0740    31.1740   162.3410 nc         1 LKP      -0.694000
     14 C15         11.6710    26.6510   164.5070 c3         1 LKP       0.177300
     15 O17         13.0010    27.1670   164.4140 oh         1 LKP      -0.678000
     16 C18         11.3340    26.2710   165.9940 c6         1 LKP      -0.093700
     17 C20          9.8880    25.7050   166.1590 c6         1 LKP      -0.069900
     18 C21          9.5770    25.3160   167.6270 c6         1 LKP      -0.090400
     19 C22         10.6060    24.3010   168.1740 c6         1 LKP       0.168300
     20 C24         12.0380    24.8690   168.0450 c6         1 LKP      -0.090400
     21 C25         12.3630    25.2500   166.5790 c6         1 LKP      -0.069900
     22 O26         10.3160    24.0050   169.5430 oh         1 LKP      -0.664000
     23 F27          8.6270    26.4220   161.5720 f          1 LKP      -0.185000
     24 H1          10.6100    28.5570   164.4950 hc         1 LKP       0.073200
     25 H2           9.7080    27.2170   163.8330 hc         1 LKP       0.073200
     26 H3           9.0040    31.4500   159.9910 ha         1 LKP       0.130000
     27 H4          11.7560    32.4120   161.1630 h4         1 LKP       0.040100
     28 H5          13.6980    29.3420   163.3470 h5         1 LKP       0.074100
     29 H13         11.6240    27.2980   161.9050 h1         1 LKP       0.084700
     30 H6           7.0060    30.0630   159.3500 ha         1 LKP       0.121000
     31 H7           6.8440    27.6860   160.1050 ha         1 LKP       0.134000
     32 H16         11.6090    25.7260   163.9170 h1         1 LKP       0.031700
     33 H8          13.6010    26.4700   164.7560 ho         1 LKP       0.446000
     34 H19         11.4060    27.2020   166.5740 hc         1 LKP       0.065700
     35 H9           9.1440    26.4470   165.8430 hc         1 LKP       0.042200
     36 H10          9.7520    24.8290   165.5100 hc         1 LKP       0.042200
     37 H11          9.5740    26.2190   168.2530 hc         1 LKP       0.052950
     38 H12          8.5660    24.8910   167.6880 hc         1 LKP       0.052950
     39 H23         10.5390    23.3810   167.5740 h1         1 LKP       0.028700
     40 H14         12.7680    24.1290   168.4010 hc         1 LKP       0.052950
     41 H15         12.1500    25.7530   168.6880 hc         1 LKP       0.052950
     42 H17         12.3770    24.3410   165.9600 hc         1 LKP       0.042200
     43 H18         13.3790    25.6640   166.5470 hc         1 LKP       0.042200
     44 H20         10.9520    23.3100   169.8210 ho         1 LKP       0.441000
@<TRIPOS>BOND
     1     1     3 ar  
     2     1     8 1   
     3     1     9 ar  
     4     2     8 1   
     5     2    14 1   
     6     2    24 1   
     7     2    25 1   
     8     3     4 ar  
     9     3     6 1   
    10     4    10 ar  
    11     4    26 1   
    12     5     6 2   
    13     5    13 1   
    14     5    27 1   
    15     6    12 1   
    16     7    12 1   
    17     7    13 2   
    18     7    28 1   
    19     8    12 1   
    20     8    29 1   
    21     9    11 ar  
    22     9    23 1   
    23    10    11 ar  
    24    10    30 1   
    25    11    31 1   
    26    14    15 1   
    27    14    16 1   
    28    14    32 1   
    29    15    33 1   
    30    16    17 1   
    31    16    21 1   
    32    16    34 1   
    33    17    18 1   
    34    17    35 1   
    35    17    36 1   
    36    18    19 1   
    37    18    37 1   
    38    18    38 1   
    39    19    20 1   
    40    19    22 1   
    41    19    39 1   
    42    20    21 1   
    43    20    40 1   
    44    20    41 1   
    45    21    42 1   
    46    21    43 1   
    47    22    44 1   
@<TRIPOS>SUBSTRUCTURE
     1 LKP         1 TEMP              0 ****  ****    0 ROOT
