@<TRIPOS>MOLECULE
LKQ
   59    63     1     0     0
SMALL
abcg2


@<TRIPOS>ATOM
      1 C1          10.7320    -5.0620    -2.5480 cc         1 LKQ       0.460300
      2 C2           9.7750    -1.9370    -1.3770 c3         1 LKQ       0.083900
      3 C3          11.4840    -3.7150    -0.9910 cd         1 LKQ      -0.148000
      4 N6          15.7130     1.8150     1.3390 ns         1 LKQ      -0.171000
      5 C7          16.3470    -5.2530     0.4020 ca         1 LKQ      -0.246300
      6 C8          17.7120    -5.1170     1.0010 c3         1 LKQ      -0.021800
      7 C9          15.4250    -4.2070     0.2370 ca         1 LKQ       0.269800
      8 C10         15.6730    -2.8330     0.6500 cc         1 LKQ      -0.222000
      9 C11         16.4810    -2.3940     1.6740 cd         1 LKQ      -0.126100
     10 C12         15.5590    -0.5570     0.8290 ca         1 LKQ      -0.069200
     11 C13         15.1980     0.7620     0.5540 ca         1 LKQ      -0.069000
     12 C14         16.5120     2.7890     0.8400 c          1 LKQ       0.620700
     13 C15         16.8740     3.8520     1.8240 ca         1 LKQ      -0.214600
     14 C16         15.8850     4.4280     2.6120 ca         1 LKQ      -0.052000
     15 C19         18.1890     4.3290     1.9370 ca         1 LKQ       0.410300
     16 C20         19.3290     3.7540     1.1510 c3         1 LKQ      -0.152400
     17 C21         14.3340     0.9800    -0.5010 ca         1 LKQ      -0.079000
     18 C22         13.8520    -0.0920    -1.2650 ca         1 LKQ      -0.139000
     19 C24         15.0640    -1.6500     0.0910 ca         1 LKQ      -0.054800
     20 O1          16.8930     2.8130    -0.3150 o          1 LKQ      -0.562100
     21 N7          18.4930     5.3120     2.7780 nb         1 LKQ      -0.683000
     22 C18         17.5370     5.8640     3.5160 ca         1 LKQ       0.364900
     23 C17         16.2150     5.4590     3.4760 ca         1 LKQ      -0.178000
     24 C23         14.2040    -1.3980    -0.9840 ca         1 LKQ      -0.051000
     25 N5          16.4070    -1.0460     1.7820 na         1 LKQ      -0.214700
     26 C6          15.9180    -6.4860    -0.0750 ca         1 LKQ       0.150900
     27 N3          14.7490    -6.7120    -0.6450 nb         1 LKQ      -0.241000
     28 N4          14.2410    -4.4200    -0.3440 nb         1 LKQ      -0.258000
     29 C5          13.9530    -5.6450    -0.7580 ca         1 LKQ       0.388900
     30 N2          12.7520    -5.8660    -1.3490 nu         1 LKQ      -0.895900
     31 C4          11.7560    -4.9280    -1.5860 cc         1 LKQ       0.164000
     32 N1          10.3830    -3.2240    -1.5910 na         1 LKQ       0.121800
     33 N            9.9130    -4.0360    -2.5420 nd         1 LKQ      -0.587800
     34 O           10.6080    -6.1220    -3.3520 os         1 LKQ      -0.450300
     35 C            9.5250    -6.1010    -4.2680 c3         1 LKQ       0.156900
     36 H1           8.7090    -2.0490    -1.1860 h1         1 LKQ       0.053700
     37 H2          10.2360    -1.4710    -0.5100 h1         1 LKQ       0.053700
     38 H3           9.9160    -1.2870    -2.2400 h1         1 LKQ       0.053700
     39 H4          11.9980    -3.1800    -0.2120 h4         1 LKQ       0.180000
     40 H5          15.5280     1.8010     2.3320 hn         1 LKQ       0.153000
     41 H6          18.2330    -4.2330     0.6290 hc         1 LKQ       0.038033
     42 H7          17.6860    -5.0460     2.0900 hc         1 LKQ       0.038033
     43 H8          18.3210    -5.9860     0.7540 hc         1 LKQ       0.038033
     44 H9          17.0840    -2.9510     2.3710 h4         1 LKQ       0.218000
     45 H10         14.8590     4.0890     2.5410 ha         1 LKQ       0.122000
     46 H11         20.2700     4.1170     1.5570 hc         1 LKQ       0.061700
     47 H12         19.3370     2.6640     1.1800 hc         1 LKQ       0.061700
     48 H13         19.2740     4.0460     0.1020 hc         1 LKQ       0.061700
     49 H14         14.0230     1.9890    -0.7350 ha         1 LKQ       0.123000
     50 H15         13.1850     0.1140    -2.0920 ha         1 LKQ       0.115000
     51 H16         17.8430     6.6700     4.1750 h4         1 LKQ       0.022100
     52 H17         15.4700     5.9340     4.0970 ha         1 LKQ       0.129000
     53 H18         13.8180    -2.2110    -1.5810 ha         1 LKQ       0.141000
     54 H19         16.9070    -0.5010     2.4640 hn         1 LKQ       0.352000
     55 H20         16.5810    -7.3440     0.0080 h4         1 LKQ       0.017100
     56 H21         12.5810    -6.8120    -1.6490 hn         1 LKQ       0.527000
     57 H22          9.5870    -7.0250    -4.8380 h1         1 LKQ       0.044367
     58 H23          8.5630    -6.0620    -3.7530 h1         1 LKQ       0.044367
     59 H24          9.5910    -5.2520    -4.9510 h1         1 LKQ       0.044367
@<TRIPOS>BOND
     1     1    31 1   
     2     1    33 2   
     3     1    34 1   
     4     2    32 1   
     5     2    36 1   
     6     2    37 1   
     7     2    38 1   
     8     3    31 2   
     9     3    32 1   
    10     3    39 1   
    11     4    11 1   
    12     4    12 1   
    13     4    40 1   
    14     5     6 1   
    15     5     7 ar  
    16     5    26 ar  
    17     6    41 1   
    18     6    42 1   
    19     6    43 1   
    20     7     8 1   
    21     7    28 ar  
    22     8     9 2   
    23     8    19 1   
    24     9    25 1   
    25     9    44 1   
    26    10    11 ar  
    27    10    19 ar  
    28    10    25 1   
    29    11    17 ar  
    30    12    13 1   
    31    12    20 2   
    32    13    14 ar  
    33    13    15 ar  
    34    14    23 ar  
    35    14    45 1   
    36    15    16 1   
    37    15    21 ar  
    38    16    46 1   
    39    16    47 1   
    40    16    48 1   
    41    17    18 ar  
    42    17    49 1   
    43    18    24 ar  
    44    18    50 1   
    45    19    24 ar  
    46    21    22 ar  
    47    22    23 ar  
    48    22    51 1   
    49    23    52 1   
    50    24    53 1   
    51    25    54 1   
    52    26    27 ar  
    53    26    55 1   
    54    27    29 ar  
    55    28    29 ar  
    56    29    30 1   
    57    30    31 1   
    58    30    56 1   
    59    32    33 1   
    60    34    35 1   
    61    35    57 1   
    62    35    58 1   
    63    35    59 1   
@<TRIPOS>SUBSTRUCTURE
     1 LKQ         1 TEMP              0 ****  ****    0 ROOT
