@<TRIPOS>MOLECULE
LKQ
   59    63     1     0     0
SMALL
No Charge or Current Charge


@<TRIPOS>ATOM
      1 C1          10.3970    -5.0810    -2.4530 cc         1 LKQ       0.460300
      2 C2           9.8980    -1.6210    -2.4210 c3         1 LKQ       0.083900
      3 C3          11.5030    -3.4180    -1.5430 cd         1 LKQ      -0.148000
      4 N6          16.3590     1.7170     1.0560 ns         1 LKQ      -0.171000
      5 C7          16.0650    -5.4480     0.6860 ca         1 LKQ      -0.246300
      6 C8          17.4560    -5.4210     1.3140 c3         1 LKQ      -0.021800
      7 C9          15.3330    -4.2790     0.3520 ca         1 LKQ       0.269800
      8 C10         15.8230    -2.9200     0.6160 cc         1 LKQ      -0.222000
      9 C11         16.3210    -2.5440     1.8580 cd         1 LKQ      -0.126100
     10 C12         16.0100    -0.6710     0.6490 ca         1 LKQ      -0.069200
     11 C13         15.9300     0.6620     0.2000 ca         1 LKQ      -0.069000
     12 C14         16.6630     3.0510     0.8080 c          1 LKQ       0.620700
     13 C15         16.9880     3.8720     2.0390 ca         1 LKQ      -0.214600
     14 C16         16.5690     3.4350     3.3200 ca         1 LKQ      -0.052000
     15 C19         17.7040     5.0980     1.9630 ca         1 LKQ       0.410300
     16 C20         18.2630     5.6850     0.6730 c3         1 LKQ      -0.152400
     17 C21         15.3890     0.8820    -1.0930 ca         1 LKQ      -0.079000
     18 C22         14.9670    -0.2050    -1.8940 ca         1 LKQ      -0.139000
     19 C24         15.5920    -1.7160    -0.1310 ca         1 LKQ      -0.054800
     20 O1          16.6420     3.5320    -0.3170 o          1 LKQ      -0.562100
     21 N7          17.9910     5.8460     3.0550 nb         1 LKQ      -0.683000
     22 C18         17.5810     5.4140     4.2650 ca         1 LKQ       0.364900
     23 C17         16.8730     4.2210     4.4400 ca         1 LKQ      -0.178000
     24 C23         15.0700    -1.5260    -1.4180 ca         1 LKQ      -0.051000
     25 N5          16.4910    -1.1370     1.8700 na         1 LKQ      -0.214700
     26 C6          15.4710    -6.6850     0.3730 ca         1 LKQ       0.150900
     27 N3          14.2700    -6.7680    -0.2290 nb         1 LKQ      -0.241000
     28 N4          14.1390    -4.3750    -0.2630 nb         1 LKQ      -0.258000
     29 C5          13.6690    -5.6050    -0.5190 ca         1 LKQ       0.388900
     30 N2          12.4420    -5.7120    -1.1580 nu         1 LKQ      -0.895900
     31 C4          11.5410    -4.7740    -1.6700 cc         1 LKQ       0.164000
     32 N1          10.3630    -3.0070    -2.2600 na         1 LKQ       0.121800
     33 N            9.6590    -4.0620    -2.8340 nd         1 LKQ      -0.587800
     34 O           10.0630    -6.3710    -2.8010 os         1 LKQ      -0.450300
     35 C            8.8940    -6.6390    -3.6000 c3         1 LKQ       0.156900
     36 H1           8.9610    -1.4840    -1.8680 h1         1 LKQ       0.053700
     37 H2          10.6540    -0.9280    -2.0330 h1         1 LKQ       0.053700
     38 H3           9.7280    -1.4120    -3.4840 h1         1 LKQ       0.053700
     39 H4          12.1580    -2.7300    -1.0250 h4         1 LKQ       0.180000
     40 H5          16.4520     1.4470     2.0250 hn         1 LKQ       0.153000
     41 H6          18.0580    -4.5880     0.9310 hc         1 LKQ       0.038033
     42 H7          17.3960    -5.3290     2.4040 hc         1 LKQ       0.038033
     43 H8          18.0090    -6.3420     1.0940 hc         1 LKQ       0.038033
     44 H9          16.5320    -3.1510     2.7350 h4         1 LKQ       0.218000
     45 H10         16.0000     2.5180     3.4630 ha         1 LKQ       0.122000
     46 H11         18.9210     6.5410     0.8620 hc         1 LKQ       0.061700
     47 H12         18.8560     4.9420     0.1260 hc         1 LKQ       0.061700
     48 H13         17.4560     6.0340     0.0200 hc         1 LKQ       0.061700
     49 H14         15.2750     1.8860    -1.4900 ha         1 LKQ       0.123000
     50 H15         14.5580    -0.0190    -2.8850 ha         1 LKQ       0.115000
     51 H16         17.8290     6.0450     5.1180 h4         1 LKQ       0.022100
     52 H17         16.5610     3.9160     5.4350 ha         1 LKQ       0.129000
     53 H18         14.7560    -2.3660    -2.0320 ha         1 LKQ       0.141000
     54 H19         16.8520    -0.5820     2.6390 hn         1 LKQ       0.352000
     55 H20         15.9690    -7.6270     0.5950 h4         1 LKQ       0.017100
     56 H21         12.1770    -6.6790    -1.3610 hn         1 LKQ       0.527000
     57 H22          8.7910    -7.7170    -3.7750 h1         1 LKQ       0.044367
     58 H23          7.9850    -6.2890    -3.0940 h1         1 LKQ       0.044367
     59 H24          8.9640    -6.1410    -4.5760 h1         1 LKQ       0.044367
@<TRIPOS>BOND
     1     1    31 1   
     2     1    33 2   
     3     1    34 1   
     4     2    32 1   
     5     2    36 1   
     6     2    37 1   
     7     2    38 1   
     8     3    31 2   
     9     3    32 1   
    10     3    39 1   
    11     4    11 1   
    12     4    12 1   
    13     4    40 1   
    14     5     6 1   
    15     5     7 ar  
    16     5    26 ar  
    17     6    41 1   
    18     6    42 1   
    19     6    43 1   
    20     7     8 1   
    21     7    28 ar  
    22     8     9 2   
    23     8    19 1   
    24     9    25 1   
    25     9    44 1   
    26    10    11 ar  
    27    10    19 ar  
    28    10    25 1   
    29    11    17 ar  
    30    12    13 1   
    31    12    20 2   
    32    13    14 ar  
    33    13    15 ar  
    34    14    23 ar  
    35    14    45 1   
    36    15    16 1   
    37    15    21 ar  
    38    16    46 1   
    39    16    47 1   
    40    16    48 1   
    41    17    18 ar  
    42    17    49 1   
    43    18    24 ar  
    44    18    50 1   
    45    19    24 ar  
    46    21    22 ar  
    47    22    23 ar  
    48    22    51 1   
    49    23    52 1   
    50    24    53 1   
    51    25    54 1   
    52    26    27 ar  
    53    26    55 1   
    54    27    29 ar  
    55    28    29 ar  
    56    29    30 1   
    57    30    31 1   
    58    30    56 1   
    59    32    33 1   
    60    34    35 1   
    61    35    57 1   
    62    35    58 1   
    63    35    59 1   
@<TRIPOS>SUBSTRUCTURE
     1 LKQ         1 TEMP              0 ****  ****    0 ROOT
