@<TRIPOS>MOLECULE
LKR
   32    34     1     0     0
SMALL
No Charge or Current Charge


@<TRIPOS>ATOM
      1 C4         -15.0440    -8.7260   -45.6210 ca         1 LKR      -0.254000
      2 C5         -14.6260    -9.0860   -44.3300 ca         1 LKR       0.216100
      3 C6         -14.0370   -10.3440   -44.1240 ca         1 LKR      -0.267600
      4 C7         -14.2080    -8.3670   -42.1200 cc         1 LKR       0.132900
      5 C8         -13.7000    -9.6120   -41.7700 cd         1 LKR      -0.053100
      6 C10        -14.2430    -7.2620   -41.1540 ca         1 LKR       0.022200
      7 C13        -14.3280    -5.0970   -39.3230 ca         1 LKR      -0.087900
      8 C15        -13.0930    -6.8920   -40.4260 ca         1 LKR      -0.141500
      9 C1         -13.8480   -11.2270   -45.2070 ca         1 LKR       0.019000
     10 C11        -15.4270    -6.5170   -40.9770 ca         1 LKR      -0.141500
     11 C12        -15.4730    -5.4410   -40.0750 ca         1 LKR       0.157100
     12 C14        -13.1400    -5.8240   -39.5200 ca         1 LKR       0.157100
     13 C2         -14.2560   -10.8480   -46.4950 ca         1 LKR      -0.181000
     14 C3         -14.8540    -9.6000   -46.7000 ca         1 LKR       0.205100
     15 C9         -13.6190   -10.7080   -42.7570 c          1 LKR       0.565900
     16 O1         -14.8960    -8.1840   -43.3120 os         1 LKR      -0.214200
     17 O2         -13.2020   -11.8260   -42.4690 o          1 LKR      -0.569100
     18 O3         -13.2120    -9.9310   -40.5310 oh         1 LKR      -0.519100
     19 O4         -15.2550    -9.2420   -47.9500 oh         1 LKR      -0.523100
     20 O5         -14.3510    -4.0760   -38.3950 oh         1 LKR      -0.565100
     21 O6         -12.0340    -5.4750   -38.8090 oh         1 LKR      -0.527600
     22 O7         -16.6250    -4.7180   -39.9620 oh         1 LKR      -0.527600
     23 H1         -15.5170    -7.7600   -45.7730 ha         1 LKR       0.139000
     24 H2         -12.1610    -7.4350   -40.5630 ha         1 LKR       0.153000
     25 H3         -13.3870   -12.2030   -45.0550 ha         1 LKR       0.142000
     26 H4         -16.3180    -6.7700   -41.5460 ha         1 LKR       0.153000
     27 H5         -14.1120   -11.5250   -47.3330 ha         1 LKR       0.141000
     28 H6         -12.9230   -10.8750   -40.5700 ho         1 LKR       0.493000
     29 H7         -15.6480    -8.3450   -47.9010 ho         1 LKR       0.473000
     30 H8         -15.1980    -4.1030   -37.8920 ho         1 LKR       0.454000
     31 H9         -12.3130    -4.7080   -38.2610 ho         1 LKR       0.475000
     32 H10        -16.3850    -3.8110   -39.6750 ho         1 LKR       0.475000
@<TRIPOS>BOND
     1     1     2 ar  
     2     1    14 ar  
     3     1    23 1   
     4     2     3 ar  
     5     2    16 1   
     6     3     9 ar  
     7     3    15 1   
     8     4     5 2   
     9     4     6 1   
    10     4    16 1   
    11     5    15 1   
    12     5    18 1   
    13     6     8 ar  
    14     6    10 ar  
    15     7    11 ar  
    16     7    12 ar  
    17     7    20 1   
    18     8    12 ar  
    19     8    24 1   
    20     9    13 ar  
    21     9    25 1   
    22    10    11 ar  
    23    10    26 1   
    24    11    22 1   
    25    12    21 1   
    26    13    14 ar  
    27    13    27 1   
    28    14    19 1   
    29    15    17 2   
    30    18    28 1   
    31    19    29 1   
    32    20    30 1   
    33    21    31 1   
    34    22    32 1   
@<TRIPOS>SUBSTRUCTURE
     1 LKR         1 TEMP              0 ****  ****    0 ROOT
