@<TRIPOS>MOLECULE
LKR
   32    34     1     0     0
SMALL
abcg2


@<TRIPOS>ATOM
      1 C4         -15.3160    -8.7770   -45.3890 ca         1 LKR      -0.254000
      2 C5         -14.5600    -9.0880   -44.2610 ca         1 LKR       0.216100
      3 C6         -13.8320   -10.2790   -44.1650 ca         1 LKR      -0.267600
      4 C7         -13.8790    -8.3650   -42.0970 cc         1 LKR       0.132900
      5 C8         -13.1450    -9.5020   -41.9360 cd         1 LKR      -0.053100
      6 C10        -14.0670    -7.2520   -41.1640 ca         1 LKR       0.022200
      7 C13        -14.4920    -5.1130   -39.4190 ca         1 LKR      -0.087900
      8 C15        -13.4250    -7.2230   -39.9180 ca         1 LKR      -0.141500
      9 C1         -13.8780   -11.1740   -45.2490 ca         1 LKR       0.019000
     10 C11        -14.9120    -6.1950   -41.5350 ca         1 LKR      -0.141500
     11 C12        -15.1170    -5.1350   -40.6660 ca         1 LKR       0.157100
     12 C14        -13.6390    -6.1540   -39.0570 ca         1 LKR       0.157100
     13 C2         -14.6180   -10.8880   -46.3690 ca         1 LKR      -0.181000
     14 C3         -15.3430    -9.6810   -46.4370 ca         1 LKR       0.205100
     15 C9         -13.0760   -10.5310   -42.9620 c          1 LKR       0.565900
     16 O1         -14.5690    -8.1780   -43.2620 os         1 LKR      -0.214200
     17 O2         -12.3890   -11.5450   -42.7420 o          1 LKR      -0.569100
     18 O3         -12.4280    -9.7750   -40.8210 oh         1 LKR      -0.519100
     19 O4         -16.0550    -9.4600   -47.5660 oh         1 LKR      -0.523100
     20 O5         -14.6610    -4.0200   -38.5880 oh         1 LKR      -0.565100
     21 O6         -13.0080    -6.1450   -37.8530 oh         1 LKR      -0.527600
     22 O7         -15.9400    -4.1200   -41.0400 oh         1 LKR      -0.527600
     23 H1         -15.8690    -7.8470   -45.4290 ha         1 LKR       0.139000
     24 H2         -12.7630    -8.0120   -39.6070 ha         1 LKR       0.153000
     25 H3         -13.3170   -12.0970   -45.1820 ha         1 LKR       0.142000
     26 H4         -15.4160    -6.1890   -42.4880 ha         1 LKR       0.153000
     27 H5         -14.6610   -11.5720   -47.2060 ha         1 LKR       0.141000
     28 H6         -12.0220   -10.6480   -41.0020 ho         1 LKR       0.493000
     29 H7         -16.5240    -8.6140   -47.5120 ho         1 LKR       0.473000
     30 H8         -15.3600    -4.1920   -37.9400 ho         1 LKR       0.454000
     31 H9         -13.2020    -5.3090   -37.4020 ho         1 LKR       0.475000
     32 H10        -15.9510    -3.4560   -40.3330 ho         1 LKR       0.475000
@<TRIPOS>BOND
     1     1     2 ar  
     2     1    14 ar  
     3     1    23 1   
     4     2     3 ar  
     5     2    16 1   
     6     3     9 ar  
     7     3    15 1   
     8     4     5 2   
     9     4     6 1   
    10     4    16 1   
    11     5    15 1   
    12     5    18 1   
    13     6     8 ar  
    14     6    10 ar  
    15     7    11 ar  
    16     7    12 ar  
    17     7    20 1   
    18     8    12 ar  
    19     8    24 1   
    20     9    13 ar  
    21     9    25 1   
    22    10    11 ar  
    23    10    26 1   
    24    11    22 1   
    25    12    21 1   
    26    13    14 ar  
    27    13    27 1   
    28    14    19 1   
    29    15    17 2   
    30    18    28 1   
    31    19    29 1   
    32    20    30 1   
    33    21    31 1   
    34    22    32 1   
@<TRIPOS>SUBSTRUCTURE
     1 LKR         1 TEMP              0 ****  ****    0 ROOT
