@<TRIPOS>MOLECULE
LKS
   41    42     1     0     0
SMALL
No Charge or Current Charge


@<TRIPOS>ATOM
      1 C5          -0.0510    -1.6030     1.8360 c6         1 LKS       0.039300
      2 S1          -0.7530    -2.7960     0.5880 ss         1 LKS      -0.406000
      3 C1           0.7790    -3.6990     0.1220 c6         1 LKS       0.338500
      4 N1           1.0970    -4.5330     1.2800 nu         1 LKS      -0.945400
      5 C2           1.9730    -2.7490    -0.2720 c6         1 LKS       0.112300
      6 O2           1.7180    -2.0120    -1.4960 oh         1 LKS      -0.712000
      7 C3           2.3400    -1.7480     0.8670 c6         1 LKS       0.130300
      8 O3           3.4500    -0.9400     0.4290 oh         1 LKS      -0.654000
      9 C4           1.1610    -0.8110     1.2710 c6         1 LKS       0.147300
     10 O4           1.6500     0.1380     2.2320 oh         1 LKS      -0.719000
     11 C6          -1.1890    -0.6620     2.3300 c3         1 LKS       0.176600
     12 O6          -2.3430    -1.4070     2.7470 oh         1 LKS      -0.651000
     13 C7           2.0920    -5.4620     1.4050 c2         1 LKS       0.627200
     14 C8           2.4820    -5.8160     2.8230 c3         1 LKS      -0.082400
     15 C9           2.8430    -4.5900     3.6590 ca         1 LKS      -0.101300
     16 C10          4.0970    -3.9700     3.4950 ca         1 LKS      -0.112500
     17 C11          4.4180    -2.8150     4.2280 ca         1 LKS      -0.104500
     18 C14          1.9140    -4.0430     4.5670 ca         1 LKS      -0.112500
     19 C13          2.2350    -2.8870     5.2980 ca         1 LKS      -0.104500
     20 C12          3.4860    -2.2720     5.1280 ca         1 LKS      -0.104000
     21 N2           2.5650    -6.0040     0.3610 n2         1 LKS      -0.831100
     22 H5           0.2920    -2.1890     2.7000 h1         1 LKS       0.085700
     23 H1           0.5120    -4.3290    -0.7420 h2         1 LKS       0.090700
     24 HN1          0.6130    -4.3200     2.1450 hn         1 LKS       0.488000
     25 H2           2.8550    -3.3880    -0.4270 h1         1 LKS       0.060700
     26 HO2          1.6220    -2.6640    -2.2300 ho         1 LKS       0.515000
     27 H3           2.6300    -2.3310     1.7550 h1         1 LKS       0.095700
     28 HO3          3.3150    -0.8540    -0.5440 ho         1 LKS       0.458000
     29 H4           0.8230    -0.2770     0.3690 h1         1 LKS       0.061700
     30 HO4          2.5930     0.2790     1.9680 ho         1 LKS       0.522000
     31 H61         -1.4550     0.0180     1.5090 h1         1 LKS       0.062700
     32 H62         -0.8120    -0.0460     3.1590 h1         1 LKS       0.062700
     33 HO6         -2.4570    -2.1120     2.0700 ho         1 LKS       0.448000
     34 H81          1.6610    -6.3720     3.2900 hc         1 LKS       0.078700
     35 H82          3.3300    -6.5090     2.8040 hc         1 LKS       0.078700
     36 H10          4.8210    -4.3780     2.7920 ha         1 LKS       0.117500
     37 H11          5.3870    -2.3380     4.0940 ha         1 LKS       0.118000
     38 H14          0.9400    -4.5090     4.7040 ha         1 LKS       0.117500
     39 H13          1.5130    -2.4670     5.9950 ha         1 LKS       0.118000
     40 H12          3.7340    -1.3750     5.6930 ha         1 LKS       0.117000
     41 HN2          2.0600    -5.6110    -0.4370 hn         1 LKS       0.372400
@<TRIPOS>BOND
     1     1     2 1   
     2     1     9 1   
     3     1    11 1   
     4     1    22 1   
     5     2     3 1   
     6     3     4 1   
     7     3     5 1   
     8     3    23 1   
     9     4    13 1   
    10     4    24 1   
    11     5     6 1   
    12     5     7 1   
    13     5    25 1   
    14     6    26 1   
    15     7     8 1   
    16     7     9 1   
    17     7    27 1   
    18     8    28 1   
    19     9    10 1   
    20     9    29 1   
    21    10    30 1   
    22    11    12 1   
    23    11    31 1   
    24    11    32 1   
    25    12    33 1   
    26    13    14 1   
    27    13    21 2   
    28    14    15 1   
    29    14    34 1   
    30    14    35 1   
    31    15    16 ar  
    32    15    18 ar  
    33    16    17 ar  
    34    16    36 1   
    35    17    20 ar  
    36    17    37 1   
    37    18    19 ar  
    38    18    38 1   
    39    19    20 ar  
    40    19    39 1   
    41    20    40 1   
    42    21    41 1   
@<TRIPOS>SUBSTRUCTURE
     1 LKS         1 TEMP              0 ****  ****    0 ROOT
