@<TRIPOS>MOLECULE
LKS
   41    42     1     0     0
SMALL
bcc


@<TRIPOS>ATOM
      1 C5          -0.3370    -1.5950     1.7030 c6         1 LKS      -0.008600
      2 S1          -0.6900    -2.7500     0.3340 ss         1 LKS      -0.310200
      3 C1           0.8750    -3.6520     0.2770 c6         1 LKS       0.290600
      4 N1           1.0250    -4.5030     1.4280 nu         1 LKS      -0.890200
      5 C2           2.0660    -2.6920     0.1070 c6         1 LKS       0.089100
      6 O2           1.9820    -1.9810    -1.1000 oh         1 LKS      -0.589800
      7 C3           2.1630    -1.6730     1.2390 c6         1 LKS       0.107100
      8 O3           3.3050    -0.8630     1.0760 oh         1 LKS      -0.591800
      9 C4           0.9180    -0.7880     1.3930 c6         1 LKS       0.124100
     10 O4           1.1130     0.1140     2.4580 oh         1 LKS      -0.596800
     11 C6          -1.5650    -0.6990     1.8630 c3         1 LKS       0.153400
     12 O6          -2.7260    -1.4060     2.2220 oh         1 LKS      -0.588800
     13 C7           1.9490    -5.5120     1.5050 c2         1 LKS       0.627200
     14 C8           2.3110    -5.8800     2.9260 c3         1 LKS      -0.082400
     15 C9           2.9480    -4.6930     3.6050 ca         1 LKS      -0.101300
     16 C10          4.2000    -4.2450     3.1880 ca         1 LKS      -0.130500
     17 C11          4.7580    -3.0990     3.7330 ca         1 LKS      -0.122500
     18 C14          2.2730    -3.9760     4.5880 ca         1 LKS      -0.130500
     19 C13          2.8300    -2.8260     5.1360 ca         1 LKS      -0.122500
     20 C12          4.0720    -2.3830     4.7070 ca         1 LKS      -0.122000
     21 N2           2.5150    -6.1170     0.5360 n2         1 LKS      -0.831100
     22 H5          -0.2010    -2.1590     2.6340 h1         1 LKS       0.085700
     23 H1           0.7930    -4.2710    -0.6220 h2         1 LKS       0.090700
     24 HN1          0.7240    -4.1130     2.3070 hn         1 LKS       0.432800
     25 H2           2.9810    -3.3000     0.1380 h1         1 LKS       0.060700
     26 HO2          2.2480    -2.5550    -1.8250 ho         1 LKS       0.416000
     27 H3           2.3180    -2.2120     2.1800 h1         1 LKS       0.095700
     28 HO3          3.2850    -0.4970     0.1820 ho         1 LKS       0.419000
     29 H4           0.7420    -0.2440     0.4510 h1         1 LKS       0.061700
     30 HO4          2.0000     0.4800     2.3640 ho         1 LKS       0.423000
     31 H61         -1.7030    -0.1140     0.9430 h1         1 LKS       0.062700
     32 H62         -1.3720     0.0090     2.6680 h1         1 LKS       0.062700
     33 HO6         -3.0330    -1.9200     1.4690 ho         1 LKS       0.409000
     34 H81          1.4170    -6.1940     3.4700 hc         1 LKS       0.078700
     35 H82          2.9930    -6.7280     2.8910 hc         1 LKS       0.078700
     36 H10          4.7360    -4.7920     2.4210 ha         1 LKS       0.135500
     37 H11          5.7290    -2.7610     3.3950 ha         1 LKS       0.136000
     38 H14          1.3000    -4.3150     4.9270 ha         1 LKS       0.135500
     39 H13          2.2880    -2.2760     5.8950 ha         1 LKS       0.136000
     40 H12          4.5050    -1.4850     5.1280 ha         1 LKS       0.135000
     41 HN2          2.2060    -5.7860    -0.3730 hn         1 LKS       0.372400
@<TRIPOS>BOND
     1     1     2 1   
     2     1     9 1   
     3     1    11 1   
     4     1    22 1   
     5     2     3 1   
     6     3     4 1   
     7     3     5 1   
     8     3    23 1   
     9     4    13 1   
    10     4    24 1   
    11     5     6 1   
    12     5     7 1   
    13     5    25 1   
    14     6    26 1   
    15     7     8 1   
    16     7     9 1   
    17     7    27 1   
    18     8    28 1   
    19     9    10 1   
    20     9    29 1   
    21    10    30 1   
    22    11    12 1   
    23    11    31 1   
    24    11    32 1   
    25    12    33 1   
    26    13    14 1   
    27    13    21 2   
    28    14    15 1   
    29    14    34 1   
    30    14    35 1   
    31    15    16 ar  
    32    15    18 ar  
    33    16    17 ar  
    34    16    36 1   
    35    17    20 ar  
    36    17    37 1   
    37    18    19 ar  
    38    18    38 1   
    39    19    20 ar  
    40    19    39 1   
    41    20    40 1   
    42    21    41 1   
@<TRIPOS>SUBSTRUCTURE
     1 LKS         1 TEMP              0 ****  ****    0 ROOT
