@<TRIPOS>MOLECULE
LKT
   51    55     1     0     0
SMALL
No Charge or Current Charge


@<TRIPOS>ATOM
      1 C1           2.8440    47.9450     3.7150 ca         1 LKT      -0.168000
      2 C2           4.2030    48.0820     3.4030 ca         1 LKT      -0.032000
      3 C3           4.6950    49.3280     2.9890 ca         1 LKT      -0.209000
      4 N6           3.7050    60.9890     0.3070 na         1 LKT      -0.321400
      5 C7           5.7070    53.6160     2.3020 c5         1 LKT      -0.100700
      6 C8           5.6110    52.2670     3.0650 c5         1 LKT       0.224800
      7 C9           7.0930    54.3270     2.3960 c3         1 LKT       0.113300
      8 C10          7.5390    54.6810     3.8430 c3         1 LKT      -0.036300
      9 C11          6.6660    55.6400     4.5310 c1         1 LKT       0.290900
     10 C12          6.3010    56.5280     1.3280 cc         1 LKT      -0.128000
     11 C13          6.8790    57.3550     0.4010 cd         1 LKT      -0.273500
     12 C14          8.1090    56.7520     0.0490 cd         1 LKT       0.298900
     13 C15          6.3490    58.6050    -0.1790 ca         1 LKT       0.272500
     14 C16          6.4890    60.1760    -1.8690 ca         1 LKT       0.141900
     15 C19          4.3910    59.1580     1.4640 cc         1 LKT      -0.215200
     16 C20          5.2300    59.3250     0.3070 ca         1 LKT      -0.189800
     17 C21          2.4740    50.3030     3.1980 ca         1 LKT      -0.110000
     18 C22          1.5860    51.4270     3.1310 cg         1 LKT       0.337000
     19 N7           0.8480    52.3320     3.0780 n1         1 LKT      -0.463000
     20 C            1.9830    49.0480     3.6150 ca         1 LKT       0.197000
     21 Cl           0.2810    48.8150     4.0320 cl         1 LKT      -0.178000
     22 C4           3.8440    50.4420     2.8790 ca         1 LKT       0.403000
     23 N            4.4000    51.6700     2.4510 nh         1 LKT      -0.828400
     24 C6           5.3090    53.1490     0.8710 c5         1 LKT      -0.093400
     25 C5           4.0370    52.3170     1.1620 c5         1 LKT       0.222800
     26 N1           5.9520    56.3960     5.0550 n1         1 LKT      -0.446000
     27 N2           7.2220    55.4960     1.4910 na         1 LKT       0.117800
     28 N3           8.3440    55.6310     0.7020 nc         1 LKT      -0.537800
     29 C18          3.4620    60.1850     1.4440 cd         1 LKT      -0.157100
     30 C17          4.7990    60.4540    -0.3540 ca         1 LKT       0.126500
     31 N5           5.4230    60.9000    -1.4600 nb         1 LKT      -0.196000
     32 N4           6.9790    59.0570    -1.2880 nb         1 LKT      -0.218000
     33 H1           2.4550    46.9820     4.0370 ha         1 LKT       0.137000
     34 H2           4.8720    47.2260     3.4790 ha         1 LKT       0.118000
     35 H3           5.7470    49.4260     2.7380 ha         1 LKT       0.116000
     36 H5           4.9510    54.3110     2.6880 hc         1 LKT       0.076700
     37 H6           6.4990    51.6430     2.8880 h1         1 LKT       0.049700
     38 H7           5.4960    52.4160     4.1470 h1         1 LKT       0.049700
     39 H8           7.8230    53.5920     2.0320 h1         1 LKT       0.096700
     40 H9           7.5990    53.7700     4.4490 hc         1 LKT       0.089200
     41 H10          8.5520    55.0990     3.8150 hc         1 LKT       0.089200
     42 H11          5.3550    56.5510     1.8480 h4         1 LKT       0.162000
     43 H12          8.8450    57.1060    -0.6640 h4         1 LKT       0.058100
     44 H13          7.0040    60.5290    -2.7610 h5         1 LKT       0.048100
     45 H14          4.4660    58.4190     2.2560 ha         1 LKT       0.209000
     46 H15          6.0900    52.5300     0.4150 hc         1 LKT       0.069200
     47 H16          5.1060    53.9800     0.1860 hc         1 LKT       0.069200
     48 H17          3.1560    52.9650     1.2720 h1         1 LKT       0.064700
     49 H18          3.8370    51.5900     0.3620 h1         1 LKT       0.064700
     50 H19          2.6670    60.4080     2.1550 h4         1 LKT       0.219000
     51 H4           3.1900    61.8190     0.0290 hn         1 LKT       0.364000
@<TRIPOS>BOND
     1     1     2 ar  
     2     1    20 ar  
     3     1    33 1   
     4     2     3 ar  
     5     2    34 1   
     6     3    22 ar  
     7     3    35 1   
     8     4    29 1   
     9     4    30 1   
    10     4    51 1   
    11     5     6 1   
    12     5     7 1   
    13     5    24 1   
    14     5    36 1   
    15     6    23 1   
    16     6    37 1   
    17     6    38 1   
    18     7     8 1   
    19     7    27 1   
    20     7    39 1   
    21     8     9 1   
    22     8    40 1   
    23     8    41 1   
    24     9    26 3   
    25    10    11 2   
    26    10    27 1   
    27    10    42 1   
    28    11    12 1   
    29    11    13 1   
    30    12    28 2   
    31    12    43 1   
    32    13    16 ar  
    33    13    32 ar  
    34    14    31 ar  
    35    14    32 ar  
    36    14    44 1   
    37    15    16 1   
    38    15    29 2   
    39    15    45 1   
    40    16    30 ar  
    41    17    18 1   
    42    17    20 ar  
    43    17    22 ar  
    44    18    19 3   
    45    20    21 1   
    46    22    23 1   
    47    23    25 1   
    48    24    25 1   
    49    24    46 1   
    50    24    47 1   
    51    25    48 1   
    52    25    49 1   
    53    27    28 1   
    54    29    50 1   
    55    30    31 ar  
@<TRIPOS>SUBSTRUCTURE
     1 LKT         1 TEMP              0 ****  ****    0 ROOT
