@<TRIPOS>MOLECULE
LKT
   51    55     1     0     0
SMALL
abcg2


@<TRIPOS>ATOM
      1 C1           2.9920    48.1000     4.1140 ca         1 LKT      -0.168000
      2 C2           4.1940    48.6980     4.4900 ca         1 LKT      -0.032000
      3 C3           4.6060    49.8980     3.9610 ca         1 LKT      -0.209000
      4 N6           3.9930    61.0940     0.7690 na         1 LKT      -0.321400
      5 C7           5.6020    53.6510     2.1390 c5         1 LKT      -0.100700
      6 C8           5.4980    52.3760     2.9680 c5         1 LKT       0.224800
      7 C9           7.0270    54.1770     2.0570 c3         1 LKT       0.113300
      8 C10          7.6480    54.4760     3.4310 c3         1 LKT      -0.036300
      9 C11          6.8820    55.4540     4.1850 c1         1 LKT       0.290900
     10 C12          6.2820    56.4040     1.1760 cc         1 LKT      -0.128000
     11 C13          6.8160    57.3050     0.2760 cd         1 LKT      -0.273500
     12 C14          7.9880    56.6660    -0.1860 cd         1 LKT       0.298900
     13 C15          6.3070    58.6020    -0.1340 ca         1 LKT       0.272500
     14 C16          6.4070    60.3180    -1.6570 ca         1 LKT       0.141900
     15 C19          4.5300    59.1500     1.7420 cc         1 LKT      -0.215200
     16 C20          5.3160    59.3040     0.5580 ca         1 LKT      -0.189800
     17 C21          2.5760    50.0120     2.6630 ca         1 LKT      -0.110000
     18 C22          1.6100    50.6830     1.8680 cg         1 LKT       0.337000
     19 N7           0.7800    51.2040     1.2590 n1         1 LKT      -0.463000
     20 C            2.2030    48.7720     3.2130 ca         1 LKT       0.197000
     21 CL           0.6880    48.0830     2.7570 cl         1 LKT      -0.178000
     22 C4           3.8300    50.5870     3.0030 ca         1 LKT       0.403000
     23 N            4.2880    51.7420     2.4680 nh         1 LKT      -0.828400
     24 C6           5.0260    53.2110     0.7970 c5         1 LKT      -0.093400
     25 C5           3.8540    52.3310     1.2030 c5         1 LKT       0.222800
     26 N1           6.2600    56.2320     4.7610 n1         1 LKT      -0.446000
     27 N2           7.1060    55.3450     1.2010 na         1 LKT       0.117800
     28 N3           8.1540    55.4960     0.3870 nc         1 LKT      -0.537800
     29 C18          3.7440    60.2600     1.8270 cd         1 LKT      -0.157100
     30 C17          4.9480    60.5430    -0.0130 ca         1 LKT       0.126500
     31 N5           5.4680    61.0700    -1.1130 nb         1 LKT      -0.196000
     32 N4           6.8430    59.1350    -1.2330 nb         1 LKT      -0.218000
     33 H1           2.6870    47.1480     4.5220 ha         1 LKT       0.137000
     34 H2           4.8280    48.1970     5.2090 ha         1 LKT       0.118000
     35 H3           5.5580    50.2980     4.2760 ha         1 LKT       0.116000
     36 H5           4.9410    54.4040     2.5860 hc         1 LKT       0.076700
     37 H6           6.3800    51.7410     2.8070 h1         1 LKT       0.049700
     38 H7           5.4200    52.5720     4.0390 h1         1 LKT       0.049700
     39 H8           7.6580    53.4200     1.5880 h1         1 LKT       0.096700
     40 H9           7.7190    53.5580     4.0160 hc         1 LKT       0.089200
     41 H10          8.6660    54.8500     3.3060 hc         1 LKT       0.089200
     42 H11          5.3790    56.4350     1.7610 h4         1 LKT       0.162000
     43 H12          8.7010    57.0340    -0.9070 h4         1 LKT       0.058100
     44 H13          6.8760    60.7050    -2.5550 h5         1 LKT       0.048100
     45 H14          4.5410    58.3450     2.4570 ha         1 LKT       0.209000
     46 H15          5.7690    52.6270     0.2470 hc         1 LKT       0.069200
     47 H16          4.7090    54.0390     0.1650 hc         1 LKT       0.069200
     48 H17          2.9530    52.9350     1.3290 h1         1 LKT       0.064700
     49 H18          3.6490    51.5590     0.4600 h1         1 LKT       0.064700
     50 H19          3.0160    60.5290     2.5750 h4         1 LKT       0.219000
     51 H4           3.5490    61.9840     0.6110 hn         1 LKT       0.364000
@<TRIPOS>BOND
     1     1     2 ar  
     2     1    20 ar  
     3     1    33 1   
     4     2     3 ar  
     5     2    34 1   
     6     3    22 ar  
     7     3    35 1   
     8     4    29 1   
     9     4    30 1   
    10     4    51 1   
    11     5     6 1   
    12     5     7 1   
    13     5    24 1   
    14     5    36 1   
    15     6    23 1   
    16     6    37 1   
    17     6    38 1   
    18     7     8 1   
    19     7    27 1   
    20     7    39 1   
    21     8     9 1   
    22     8    40 1   
    23     8    41 1   
    24     9    26 3   
    25    10    11 2   
    26    10    27 1   
    27    10    42 1   
    28    11    12 1   
    29    11    13 1   
    30    12    28 2   
    31    12    43 1   
    32    13    16 ar  
    33    13    32 ar  
    34    14    31 ar  
    35    14    32 ar  
    36    14    44 1   
    37    15    16 1   
    38    15    29 2   
    39    15    45 1   
    40    16    30 ar  
    41    17    18 1   
    42    17    20 ar  
    43    17    22 ar  
    44    18    19 3   
    45    20    21 1   
    46    22    23 1   
    47    23    25 1   
    48    24    25 1   
    49    24    46 1   
    50    24    47 1   
    51    25    48 1   
    52    25    49 1   
    53    27    28 1   
    54    29    50 1   
    55    30    31 ar  
@<TRIPOS>SUBSTRUCTURE
     1 LKT         1 TEMP              0 ****  ****    0 ROOT
