@<TRIPOS>MOLECULE
LKU
   30    31     1     0     0
SMALL
bcc


@<TRIPOS>ATOM
      1 N1          86.3070    -4.7090    85.1760 ns         1 LKU      -0.467100
      2 C4          84.7910    -3.6980    83.6460 ca         1 LKU      -0.223000
      3 C5          86.0310    -4.3020    83.8660 ca         1 LKU       0.106600
      4 C6          87.3850    -5.3720    85.6610 c          1 LKU       0.686700
      5 C7          87.3870    -5.5620    87.1470 ca         1 LKU      -0.129600
      6 C8          88.0070    -6.6960    87.6640 ca         1 LKU      -0.091000
      7 C10         87.5110    -5.9640    89.9070 ca         1 LKU      -0.148000
      8 C13         86.9140    -4.4470    82.8010 ca         1 LKU      -0.189000
      9 C1          84.9360    -2.9010    79.9270 c3         1 LKU      -0.043800
     10 C2          85.3180    -3.3860    81.2950 ca         1 LKU      -0.197300
     11 C3          84.4570    -3.2560    82.3790 ca         1 LKU      -0.058000
     12 O1          88.2940    -5.8040    84.9760 o          1 LKU      -0.566100
     13 C9          88.0550    -6.8970    89.0350 ca         1 LKU      -0.110000
     14 C11         86.9150    -4.8390    89.3730 ca         1 LKU       0.129900
     15 F1          86.4010    -3.9200    90.2030 f          1 LKU      -0.139900
     16 C12         86.8380    -4.6180    88.0120 ca         1 LKU      -0.152000
     17 C14         86.5560    -3.9900    81.5350 ca         1 LKU       0.170100
     18 O2          87.4720    -4.1670    80.5610 oh         1 LKU      -0.495100
     19 H6          85.5680    -4.5130    85.8340 hn         1 LKU       0.321500
     20 H5          84.0900    -3.5730    84.4630 ha         1 LKU       0.130000
     21 H7          88.4430    -7.4270    86.9970 ha         1 LKU       0.159000
     22 H9          87.5520    -6.1080    90.9790 ha         1 LKU       0.154000
     23 H11         87.8810    -4.9070    82.9290 ha         1 LKU       0.180000
     24 H1          85.6040    -2.1160    79.5630 hc         1 LKU       0.040700
     25 H2          84.9450    -3.7050    79.1860 hc         1 LKU       0.040700
     26 H3          83.9300    -2.4850    79.9340 hc         1 LKU       0.040700
     27 H4          83.4900    -2.7920    82.2260 ha         1 LKU       0.129000
     28 H8          88.5250    -7.7860    89.4330 ha         1 LKU       0.143000
     29 H10         86.3840    -3.7030    87.6510 ha         1 LKU       0.151000
     30 H12         87.1690    -3.7970    79.7240 ho         1 LKU       0.428000
@<TRIPOS>BOND
     1     1     3 1   
     2     1     4 1   
     3     1    19 1   
     4     2     3 ar  
     5     2    11 ar  
     6     2    20 1   
     7     3     8 ar  
     8     4     5 1   
     9     4    12 2   
    10     5     6 ar  
    11     5    16 ar  
    12     6    13 ar  
    13     6    21 1   
    14     7    13 ar  
    15     7    14 ar  
    16     7    22 1   
    17     8    17 ar  
    18     8    23 1   
    19     9    10 1   
    20     9    24 1   
    21     9    25 1   
    22     9    26 1   
    23    10    11 ar  
    24    10    17 ar  
    25    11    27 1   
    26    13    28 1   
    27    14    15 1   
    28    14    16 ar  
    29    16    29 1   
    30    17    18 1   
    31    18    30 1   
@<TRIPOS>SUBSTRUCTURE
     1 LKU         1 TEMP              0 ****  ****    0 ROOT
