@<TRIPOS>MOLECULE
LKU
   30    31     1     0     0
SMALL
No Charge or Current Charge


@<TRIPOS>ATOM
      1 N1          86.4340    -4.6300    85.1570 ns         1 LKU      -0.141000
      2 C4          85.0170    -3.3570    83.6710 ca         1 LKU      -0.205000
      3 C5          86.1140    -4.2200    83.8330 ca         1 LKU       0.014000
      4 C6          87.4260    -5.4560    85.6730 c          1 LKU       0.619700
      5 C7          87.4160    -5.6350    87.1830 ca         1 LKU      -0.129600
      6 C8          88.3920    -6.4600    87.7930 ca         1 LKU      -0.073000
      7 C10         87.4570    -6.0150    89.9960 ca         1 LKU      -0.130000
      8 C13         86.8290    -4.6280    82.6870 ca         1 LKU      -0.171000
      9 C1          84.9170    -2.8100    79.8770 c3         1 LKU      -0.043800
     10 C2          85.3490    -3.3130    81.2540 ca         1 LKU      -0.197300
     11 C3          84.6360    -2.9060    82.3960 ca         1 LKU      -0.040000
     12 O1          88.2670    -6.0140    84.9760 o          1 LKU      -0.566100
     13 C9          88.4130    -6.6480    89.1860 ca         1 LKU      -0.092000
     14 C11         86.4830    -5.1960    89.4080 ca         1 LKU       0.165000
     15 F1          85.5630    -4.5870    90.1870 f          1 LKU      -0.175000
     16 C12         86.4560    -5.0020    88.0180 ca         1 LKU      -0.134000
     17 C14         86.4510    -4.1790    81.4120 ca         1 LKU       0.170100
     18 O2          87.1670    -4.5960    80.3300 oh         1 LKU      -0.534100
     19 H6          85.8170    -4.2430    85.8560 hn         1 LKU       0.155000
     20 H5          84.4510    -3.0290    84.5400 ha         1 LKU       0.112000
     21 H7          89.1440    -6.9610    87.1860 ha         1 LKU       0.141000
     22 H9          87.4680    -6.1580    91.0740 ha         1 LKU       0.136000
     23 H11         87.6820    -5.2930    82.7580 ha         1 LKU       0.162000
     24 H1          85.7190    -2.2410    79.3920 hc         1 LKU       0.040700
     25 H2          84.6410    -3.6430    79.2190 hc         1 LKU       0.040700
     26 H3          84.0450    -2.1480    79.9430 hc         1 LKU       0.040700
     27 H4          83.7820    -2.2380    82.3010 ha         1 LKU       0.111000
     28 H8          89.1710    -7.2860    89.6370 ha         1 LKU       0.125000
     29 H10         85.6820    -4.3580    87.6100 ha         1 LKU       0.133000
     30 H12         86.7680    -4.1910    79.5320 ho         1 LKU       0.467000
@<TRIPOS>BOND
     1     1     3 1   
     2     1     4 1   
     3     1    19 1   
     4     2     3 ar  
     5     2    11 ar  
     6     2    20 1   
     7     3     8 ar  
     8     4     5 1   
     9     4    12 2   
    10     5     6 ar  
    11     5    16 ar  
    12     6    13 ar  
    13     6    21 1   
    14     7    13 ar  
    15     7    14 ar  
    16     7    22 1   
    17     8    17 ar  
    18     8    23 1   
    19     9    10 1   
    20     9    24 1   
    21     9    25 1   
    22     9    26 1   
    23    10    11 ar  
    24    10    17 ar  
    25    11    27 1   
    26    13    28 1   
    27    14    15 1   
    28    14    16 ar  
    29    16    29 1   
    30    17    18 1   
    31    18    30 1   
@<TRIPOS>SUBSTRUCTURE
     1 LKU         1 TEMP              0 ****  ****    0 ROOT
