@<TRIPOS>MOLECULE
LKV
   41    42     1     0     0
SMALL
No Charge or Current Charge


@<TRIPOS>ATOM
      1 C4         -13.8970    -2.5250    -0.5420 c          1 LKV       0.573100
      2 C5         -15.8510    -2.8000    -2.1540 c3         1 LKV      -0.047300
      3 C7         -16.2910    -3.9120    -3.1570 c          1 LKV       0.716000
      4 C8         -11.3410    -1.4540     1.6730 c5         1 LKV       0.141300
      5 C10        -10.2580     0.7520     2.6090 ca         1 LKV      -0.107000
      6 C12         -9.8100     2.5180     0.9690 ca         1 LKV      -0.133000
      7 C13        -10.3250     1.7080    -0.0640 ca         1 LKV      -0.041000
      8 C15        -11.3790    -0.6070    -0.5920 c          1 LKV       0.574600
      9 C1         -12.2220    -4.1880     0.5390 c3         1 LKV      -0.063700
     10 O3         -11.6030    -0.5210    -1.7920 o          1 LKV      -0.538000
     11 C14        -10.7930     0.4290     0.2750 ca         1 LKV      -0.154600
     12 C11         -9.7770     2.0410     2.2990 ca         1 LKV      -0.098000
     13 C9         -10.7680    -0.0460     1.5730 ca         1 LKV      -0.076300
     14 N1         -11.6380    -1.7200     0.2240 n          1 LKV      -0.403800
     15 C3         -12.3970    -2.8880    -0.3200 c3         1 LKV       0.037700
     16 C2         -10.7610    -4.7040     0.4930 c3         1 LKV      -0.088600
     17 C          -13.1860    -5.3340     0.1360 c3         1 LKV      -0.088600
     18 O          -14.5420    -1.8330     0.2400 o          1 LKV      -0.668100
     19 N          -14.4590    -3.0280    -1.7000 ns         1 LKV      -0.448900
     20 C6         -16.0220    -1.3900    -2.7620 c3         1 LKV      -0.078100
     21 O1         -15.4620    -4.3440    -3.9480 o          1 LKV      -0.722500
     22 O2         -17.4110    -4.3870    -3.0350 o          1 LKV      -0.722500
     23 H1         -16.5080    -2.8800    -1.2780 h1         1 LKV       0.048700
     24 H14        -12.2510    -1.4750     2.2880 h1         1 LKV       0.073700
     25 H15        -10.6060    -2.1550     2.0890 h1         1 LKV       0.073700
     26 H16        -10.2360     0.3840     3.6330 ha         1 LKV       0.114000
     27 H18         -9.4380     3.5140     0.7400 ha         1 LKV       0.108000
     28 H19        -10.3580     2.0630    -1.0920 ha         1 LKV       0.132000
     29 H5         -12.4590    -3.9430     1.5810 hc         1 LKV       0.058700
     30 H17         -9.3780     2.6730     3.0900 ha         1 LKV       0.104000
     31 H          -11.9890    -3.1030    -1.3160 h1         1 LKV       0.088700
     32 H7         -10.6330    -5.5660     1.1590 hc         1 LKV       0.034200
     33 H6         -10.4910    -5.0160    -0.5230 hc         1 LKV       0.034200
     34 H8         -10.0480    -3.9340     0.8070 hc         1 LKV       0.034200
     35 H4         -12.9860    -6.2330     0.7310 hc         1 LKV       0.034200
     36 H3         -14.2320    -5.0560     0.3100 hc         1 LKV       0.034200
     37 H2         -13.0640    -5.5950    -0.9230 hc         1 LKV       0.034200
     38 H9         -13.8610    -3.5950    -2.2940 hn         1 LKV       0.350500
     39 H12        -15.7650    -0.6140    -2.0310 hc         1 LKV       0.025367
     40 H11        -15.3770    -1.2640    -3.6400 hc         1 LKV       0.025367
     41 H10        -17.0610    -1.2310    -3.0740 hc         1 LKV       0.025367
@<TRIPOS>BOND
     1     1    15 1   
     2     1    18 2   
     3     1    19 1   
     4     2     3 1   
     5     2    19 1   
     6     2    20 1   
     7     2    23 1   
     8     3    21 1   
     9     3    22 1   
    10     4    13 1   
    11     4    14 1   
    12     4    24 1   
    13     4    25 1   
    14     5    12 ar  
    15     5    13 ar  
    16     5    26 1   
    17     6     7 ar  
    18     6    12 ar  
    19     6    27 1   
    20     7    11 ar  
    21     7    28 1   
    22     8    10 2   
    23     8    11 1   
    24     8    14 1   
    25     9    15 1   
    26     9    16 1   
    27     9    17 1   
    28     9    29 1   
    29    11    13 ar  
    30    12    30 1   
    31    14    15 1   
    32    15    31 1   
    33    16    32 1   
    34    16    33 1   
    35    16    34 1   
    36    17    35 1   
    37    17    36 1   
    38    17    37 1   
    39    19    38 1   
    40    20    39 1   
    41    20    40 1   
    42    20    41 1   
@<TRIPOS>SUBSTRUCTURE
     1 LKV         1 TEMP              0 ****  ****    0 ROOT
