@<TRIPOS>MOLECULE
LKV
   41    42     1     0     0
SMALL
abcg2


@<TRIPOS>ATOM
      1 C4         -13.9280    -2.8750    -0.4050 c          1 LKV       0.573100
      2 C5         -15.7900    -2.6730    -2.0110 c3         1 LKV      -0.047300
      3 C7         -15.9870    -3.1390    -3.4780 c          1 LKV       0.716000
      4 C8         -11.8670    -1.3420     1.4730 c5         1 LKV       0.141300
      5 C10        -10.8550     0.9220     2.3030 ca         1 LKV      -0.107000
      6 C12         -9.7480     2.2200     0.5760 ca         1 LKV      -0.133000
      7 C13        -10.0350     1.2520    -0.3760 ca         1 LKV      -0.041000
      8 C15        -11.1690    -1.0400    -0.7510 c          1 LKV       0.574600
      9 C1         -12.0980    -4.2910     0.6290 c3         1 LKV      -0.063700
     10 O3         -11.0110    -1.2300    -1.9450 o          1 LKV      -0.538000
     11 C14        -10.7310     0.1280     0.0380 ca         1 LKV      -0.154600
     12 C11        -10.1560     2.0540     1.9000 ca         1 LKV      -0.098000
     13 C9         -11.1370    -0.0420     1.3500 ca         1 LKV      -0.076300
     14 N1         -11.7940    -1.8720     0.1240 n          1 LKV      -0.403800
     15 C3         -12.4190    -3.1100    -0.2920 c3         1 LKV       0.037700
     16 C2         -10.5920    -4.5000     0.7440 c3         1 LKV      -0.088600
     17 C          -12.7670    -5.5560     0.0970 c3         1 LKV      -0.088600
     18 O          -14.6120    -2.6970     0.5980 o          1 LKV      -0.668100
     19 N          -14.4020    -2.8570    -1.6490 ns         1 LKV      -0.448900
     20 C6         -16.2330    -1.2190    -1.8510 c3         1 LKV      -0.078100
     21 O1         -14.9580    -3.4410    -4.1160 o          1 LKV      -0.722500
     22 O2         -17.1600    -3.1480    -3.8840 o          1 LKV      -0.722500
     23 H1         -16.4130    -3.3000    -1.3650 h1         1 LKV       0.048700
     24 H14        -12.9010    -1.2030     1.7940 h1         1 LKV       0.073700
     25 H15        -11.3870    -2.0090     2.1940 h1         1 LKV       0.073700
     26 H16        -11.1670     0.8050     3.3330 ha         1 LKV       0.114000
     27 H18         -9.2060     3.1130     0.2930 ha         1 LKV       0.108000
     28 H19         -9.7250     1.3720    -1.4060 ha         1 LKV       0.132000
     29 H5         -12.5050    -4.0870     1.6250 hc         1 LKV       0.058700
     30 H17         -9.9230     2.8220     2.6260 ha         1 LKV       0.104000
     31 H          -12.0060    -3.3370    -1.2780 h1         1 LKV       0.088700
     32 H7         -10.3770    -5.3460     1.3970 hc         1 LKV       0.034200
     33 H6         -10.1550    -4.7150    -0.2340 hc         1 LKV       0.034200
     34 H8         -10.0770    -3.6310     1.1540 hc         1 LKV       0.034200
     35 H4         -12.5170    -6.4110     0.7270 hc         1 LKV       0.034200
     36 H3         -13.8540    -5.4770     0.0760 hc         1 LKV       0.034200
     37 H2         -12.4270    -5.7810    -0.9160 hc         1 LKV       0.034200
     38 H9         -13.8020    -3.0690    -2.4350 hn         1 LKV       0.350500
     39 H12        -16.0980    -0.8740    -0.8270 hc         1 LKV       0.025367
     40 H11        -15.6590    -0.5640    -2.5090 hc         1 LKV       0.025367
     41 H10        -17.2870    -1.1130    -2.1030 hc         1 LKV       0.025367
@<TRIPOS>BOND
     1     1    15 1   
     2     1    18 2   
     3     1    19 1   
     4     2     3 1   
     5     2    19 1   
     6     2    20 1   
     7     2    23 1   
     8     3    21 1   
     9     3    22 1   
    10     4    13 1   
    11     4    14 1   
    12     4    24 1   
    13     4    25 1   
    14     5    12 ar  
    15     5    13 ar  
    16     5    26 1   
    17     6     7 ar  
    18     6    12 ar  
    19     6    27 1   
    20     7    11 ar  
    21     7    28 1   
    22     8    10 2   
    23     8    11 1   
    24     8    14 1   
    25     9    15 1   
    26     9    16 1   
    27     9    17 1   
    28     9    29 1   
    29    11    13 ar  
    30    12    30 1   
    31    14    15 1   
    32    15    31 1   
    33    16    32 1   
    34    16    33 1   
    35    16    34 1   
    36    17    35 1   
    37    17    36 1   
    38    17    37 1   
    39    19    38 1   
    40    20    39 1   
    41    20    40 1   
    42    20    41 1   
@<TRIPOS>SUBSTRUCTURE
     1 LKV         1 TEMP              0 ****  ****    0 ROOT
