@<TRIPOS>MOLECULE
LKW
   44    47     1     0     0
SMALL
No Charge or Current Charge


@<TRIPOS>ATOM
      1 C6          -3.1750   -11.1330    58.6130 ca         1 LKW       0.232000
      2 C8          -1.0580   -10.1830    58.8380 cp         1 LKW       0.458500
      3 C10          1.2300    -9.0910    58.4960 ca         1 LKW      -0.109000
      4 C1          -3.6720   -14.4800    61.3820 ca         1 LKW      -0.078500
      5 C3          -3.9020   -13.1440    59.2860 cc         1 LKW      -0.037300
      6 C2          -4.1160   -14.3730    60.0500 ca         1 LKW       0.007200
      7 C12          1.4870    -6.6730    58.1710 ca         1 LKW      -0.130600
      8 C11          2.0460    -7.9660    58.2830 ca         1 LKW      -0.109000
      9 C9          -0.1810    -8.9750    58.6070 cp         1 LKW      -0.177500
     10 C28         -3.7500   -19.0310    62.1750 c3         1 LKW      -0.086100
     11 C26         -4.6140   -16.7250    61.5450 ca         1 LKW      -0.098300
     12 C29         -3.9150   -15.6500    62.1230 ca         1 LKW      -0.113000
     13 C25         -5.0720   -16.6150    60.2190 ca         1 LKW      -0.113000
     14 C24         -4.8300   -15.4450    59.4790 ca         1 LKW      -0.078500
     15 N4          -4.9200   -12.4680    58.6370 na         1 LKW      -0.009500
     16 N5          -4.5170   -11.1980    58.2160 nc         1 LKW      -0.312400
     17 N7          -2.3470   -10.0920    58.4200 nb         1 LKW      -0.697000
     18 C23         -2.7530   -12.2960    59.2370 ca         1 LKW      -0.129000
     19 C19         -1.4160   -12.4780    59.6480 ca         1 LKW      -0.048600
     20 C20         -0.8670   -13.7690    60.2160 c          1 LKW       0.715600
     21 O22         -0.2540   -13.7140    61.2740 o          1 LKW      -0.713500
     22 O21         -0.9480   -14.7830    59.5350 o          1 LKW      -0.713500
     23 C18         -0.5670   -11.3690    59.4490 ca         1 LKW      -0.188000
     24 O15          1.8430    -4.3540    57.8480 o          1 LKW      -0.733000
     25 O14          3.5810    -5.6130    57.8580 o          1 LKW      -0.733000
     26 C16          0.0830    -6.5450    58.2750 ca         1 LKW      -0.109000
     27 C17         -0.7310    -7.6710    58.4870 ca         1 LKW      -0.109000
     28 H1           1.7080   -10.0650    58.5570 ha         1 LKW       0.104000
     29 H2          -3.1510   -13.6490    61.8500 ha         1 LKW       0.124000
     30 H3           3.1210    -8.1070    58.2020 ha         1 LKW       0.118000
     31 H4          -3.9650   -19.9310    62.7620 hc         1 LKW       0.032033
     32 H5          -3.6500   -19.3220    61.1220 hc         1 LKW       0.032033
     33 H6          -2.7910   -18.6190    62.5130 hc         1 LKW       0.032033
     34 H7          -4.9780   -17.7550    63.4120 hc         1 LKW       0.028700
     35 H8          -5.8260   -18.4470    62.0410 hc         1 LKW       0.028700
     36 H9          -3.5610   -15.7170    63.1490 ha         1 LKW       0.097500
     37 H10         -5.6150   -17.4380    59.7600 ha         1 LKW       0.097500
     38 H11         -5.1890   -15.3760    58.4550 ha         1 LKW       0.124000
     39 H12         -5.8760   -12.7860    58.5110 hn         1 LKW       0.345000
     40 H14          0.4670   -11.4300    59.7670 ha         1 LKW       0.132000
     41 H16         -0.3850    -5.5660    58.1940 ha         1 LKW       0.118000
     42 H17         -1.8060    -7.5230    58.5670 ha         1 LKW       0.104000
     43 C27         -4.8750   -17.9940    62.3470 c3         1 LKW      -0.021100
     44 C13          2.3710    -5.4540    57.9410 c          1 LKW       0.715600
@<TRIPOS>BOND
     1     1    16 2   
     2     1    17 ar  
     3     1    18 ar  
     4     2     9 1   
     5     2    17 ar  
     6     2    23 ar  
     7     3     8 ar  
     8     3     9 ar  
     9     3    28 1   
    10     4     6 ar  
    11     4    12 ar  
    12     4    29 1   
    13     5     6 1   
    14     5    15 1   
    15     5    18 2   
    16     6    14 ar  
    17     7     8 ar  
    18     7    26 ar  
    19     7    44 1   
    20     8    30 1   
    21     9    27 ar  
    22    10    31 1   
    23    10    32 1   
    24    10    33 1   
    25    10    43 1   
    26    11    12 ar  
    27    11    13 ar  
    28    11    43 1   
    29    12    36 1   
    30    13    14 ar  
    31    13    37 1   
    32    14    38 1   
    33    15    16 1   
    34    15    39 1   
    35    18    19 ar  
    36    19    20 1   
    37    19    23 ar  
    38    20    21 1   
    39    20    22 1   
    40    23    40 1   
    41    24    44 1   
    42    25    44 1   
    43    26    27 ar  
    44    26    41 1   
    45    27    42 1   
    46    34    43 1   
    47    35    43 1   
@<TRIPOS>SUBSTRUCTURE
     1 LKW         1 TEMP              0 ****  ****    0 ROOT
