@<TRIPOS>MOLECULE
LKW
   44    47     1     0     0
SMALL
abcg2


@<TRIPOS>ATOM
      1 C6          -3.0580   -11.1510    58.7160 ca         1 LKW       0.232000
      2 C8          -1.0450   -10.1470    58.8680 cp         1 LKW       0.458500
      3 C10          1.2080    -9.0530    58.6050 ca         1 LKW      -0.109000
      4 C1          -3.5990   -14.6230    61.4580 ca         1 LKW      -0.078500
      5 C3          -3.7780   -13.1040    59.5130 cc         1 LKW      -0.037300
      6 C2          -4.0760   -14.3720    60.1720 ca         1 LKW       0.007200
      7 C12          1.4110    -6.7100    58.0330 ca         1 LKW      -0.130600
      8 C11          1.9890    -7.9400    58.3340 ca         1 LKW      -0.109000
      9 C9          -0.1860    -8.9750    58.5810 cp         1 LKW      -0.177500
     10 C28         -3.8750   -19.1010    61.9510 c3         1 LKW      -0.086100
     11 C26         -4.7030   -16.7770    61.4950 ca         1 LKW      -0.098300
     12 C29         -3.9060   -15.8080    62.1040 ca         1 LKW      -0.113000
     13 C25         -5.1820   -16.5190    60.2140 ca         1 LKW      -0.113000
     14 C24         -4.8750   -15.3360    59.5580 ca         1 LKW      -0.078500
     15 N4          -4.7190   -12.4090    58.8560 na         1 LKW      -0.009500
     16 N5          -4.3390   -11.2380    58.3630 nc         1 LKW      -0.312400
     17 N7          -2.2790   -10.0960    58.4230 nb         1 LKW      -0.697000
     18 C23         -2.6310   -12.3060    59.4320 ca         1 LKW      -0.129000
     19 C19         -1.2880   -12.3660    59.8650 ca         1 LKW      -0.048600
     20 C20         -0.6500   -13.5910    60.5020 c          1 LKW       0.715600
     21 O22         -0.0140   -13.4020    61.5510 o          1 LKW      -0.713500
     22 O21         -0.8140   -14.6460    59.8680 o          1 LKW      -0.713500
     23 C18         -0.5280   -11.2550    59.6000 ca         1 LKW      -0.188000
     24 O15          1.6600    -4.4270    57.4960 o          1 LKW      -0.733000
     25 O14          3.5060    -5.6490    57.7780 o          1 LKW      -0.733000
     26 C16          0.0200    -6.6350    58.0050 ca         1 LKW      -0.109000
     27 C17         -0.7650    -7.7430    58.2690 ca         1 LKW      -0.109000
     28 H1           1.7040    -9.9920    58.8180 ha         1 LKW       0.104000
     29 H2          -2.9950   -13.8820    61.9660 ha         1 LKW       0.124000
     30 H3           3.0660    -8.0330    58.3530 ha         1 LKW       0.118000
     31 H4          -4.0960   -20.0410    62.4580 hc         1 LKW       0.032033
     32 H5          -3.7540   -19.3140    60.8880 hc         1 LKW       0.032033
     33 H6          -2.9190   -18.7340    62.3280 hc         1 LKW       0.032033
     34 H7          -5.1070   -17.9130    63.2560 hc         1 LKW       0.028700
     35 H8          -5.9350   -18.4900    61.8240 hc         1 LKW       0.028700
     36 H9          -3.5280   -15.9800    63.1050 ha         1 LKW       0.097500
     37 H10         -5.8010   -17.2560    59.7150 ha         1 LKW       0.097500
     38 H11         -5.2490   -15.1740    58.5530 ha         1 LKW       0.124000
     39 H12         -5.6850   -12.6870    58.7520 hn         1 LKW       0.345000
     40 H14          0.4950   -11.2300    59.9470 ha         1 LKW       0.132000
     41 H16         -0.4540    -5.6900    57.7740 ha         1 LKW       0.118000
     42 H17         -1.8430    -7.6560    58.2440 ha         1 LKW       0.104000
     43 C27         -4.9880   -18.0810    62.1840 c3         1 LKW      -0.021100
     44 C13          2.2720    -5.4830    57.7420 c          1 LKW       0.715600
@<TRIPOS>BOND
     1     1    16 2   
     2     1    17 ar  
     3     1    18 ar  
     4     2     9 1   
     5     2    17 ar  
     6     2    23 ar  
     7     3     8 ar  
     8     3     9 ar  
     9     3    28 1   
    10     4     6 ar  
    11     4    12 ar  
    12     4    29 1   
    13     5     6 1   
    14     5    15 1   
    15     5    18 2   
    16     6    14 ar  
    17     7     8 ar  
    18     7    26 ar  
    19     7    44 1   
    20     8    30 1   
    21     9    27 ar  
    22    10    31 1   
    23    10    32 1   
    24    10    33 1   
    25    10    43 1   
    26    11    12 ar  
    27    11    13 ar  
    28    11    43 1   
    29    12    36 1   
    30    13    14 ar  
    31    13    37 1   
    32    14    38 1   
    33    15    16 1   
    34    15    39 1   
    35    18    19 ar  
    36    19    20 1   
    37    19    23 ar  
    38    20    21 1   
    39    20    22 1   
    40    23    40 1   
    41    24    44 1   
    42    25    44 1   
    43    26    27 ar  
    44    26    41 1   
    45    27    42 1   
    46    34    43 1   
    47    35    43 1   
@<TRIPOS>SUBSTRUCTURE
     1 LKW         1 TEMP              0 ****  ****    0 ROOT
