@<TRIPOS>MOLECULE
LKX
   26    27     1     0     0
SMALL
No Charge or Current Charge


@<TRIPOS>ATOM
      1 N1           7.2160     0.5830    19.4740 n          1 LKX      -0.207900
      2 N3           6.0260     1.0800    17.7540 ns         1 LKX      -0.379400
      3 C4          10.7800    -0.4020    22.3940 ca         1 LKX      -0.073300
      4 C5           9.2690    -0.6100    22.4380 c3         1 LKX      -0.099100
      5 C6           8.5580     0.3600    21.4860 c          1 LKX       0.603100
      6 C7           6.0060     1.1140    19.9030 cc         1 LKX       0.389800
      7 C8           7.2140     0.4950    18.0900 c          1 LKX       0.573000
      8 O1           8.0450    -0.0090    17.3490 o          1 LKX      -0.540000
      9 N2           5.2790     1.4480    18.8670 n2         1 LKX      -0.474300
     10 N            8.1410    -0.1960    20.2850 ns         1 LKX      -0.364500
     11 O            8.3930     1.5420    21.7650 o          1 LKX      -0.541100
     12 C9          11.5740    -1.1290    21.4840 ca         1 LKX      -0.088000
     13 C           12.9640    -0.9320    21.4430 ca         1 LKX       0.126000
     14 Cl          13.9460    -1.8450    20.3040 cl         1 LKX      -0.208000
     15 C3          11.3950     0.5250    23.2590 ca         1 LKX      -0.086000
     16 C2          12.7870     0.7220    23.2170 ca         1 LKX      -0.100000
     17 C1          13.5730    -0.0080    22.3080 ca         1 LKX      -0.093000
     18 H1           5.7310     1.1100    16.7750 hn         1 LKX       0.497000
     19 H2           8.9040    -0.4280    23.4550 hc         1 LKX       0.069700
     20 H3           9.0400    -1.6440    22.1550 hc         1 LKX       0.069700
     21 H4           5.7300     1.2030    20.9470 h5         1 LKX       0.077800
     22 H5           8.1620    -1.2050    20.1700 hn         1 LKX       0.346500
     23 H6          11.1170    -1.8480    20.8080 ha         1 LKX       0.132000
     24 H7          10.7950     1.0970    23.9640 ha         1 LKX       0.118000
     25 H8          13.2560     1.4390    23.8870 ha         1 LKX       0.121000
     26 H9          14.6490     0.1420    22.2720 ha         1 LKX       0.132000
@<TRIPOS>BOND
     1     1     6 1   
     2     1     7 1   
     3     1    10 1   
     4     2     7 1   
     5     2     9 1   
     6     2    18 1   
     7     3     4 1   
     8     3    12 ar  
     9     3    15 ar  
    10     4     5 1   
    11     4    19 1   
    12     4    20 1   
    13     5    10 1   
    14     5    11 2   
    15     6     9 2   
    16     6    21 1   
    17     7     8 2   
    18    10    22 1   
    19    12    13 ar  
    20    12    23 1   
    21    13    14 1   
    22    13    17 ar  
    23    15    16 ar  
    24    15    24 1   
    25    16    17 ar  
    26    16    25 1   
    27    17    26 1   
@<TRIPOS>SUBSTRUCTURE
     1 LKX         1 TEMP              0 ****  ****    0 ROOT
