@<TRIPOS>MOLECULE
LKX
   26    27     1     0     0
SMALL
abcg2


@<TRIPOS>ATOM
      1 N1           6.8840     0.2840    19.6740 n          1 LKX      -0.207900
      2 N3           6.3090     1.1740    17.8150 ns         1 LKX      -0.379400
      3 C4          10.8340    -0.3840    22.3160 ca         1 LKX      -0.073300
      4 C5           9.3460    -0.6170    22.2890 c3         1 LKX      -0.099100
      5 C6           8.6480     0.2510    21.2550 c          1 LKX       0.603100
      6 C7           5.7670     1.0620    19.8570 cc         1 LKX       0.389800
      7 C8           7.2720     0.3600    18.3270 c          1 LKX       0.573000
      8 O1           8.2260    -0.1820    17.7930 o          1 LKX      -0.540000
      9 N2           5.3910     1.6070    18.7490 n2         1 LKX      -0.474300
     10 N            7.5930    -0.3690    20.6380 ns         1 LKX      -0.364500
     11 O            8.9510     1.4040    21.0150 o          1 LKX      -0.541100
     12 C9          11.6460    -0.9940    21.3600 ca         1 LKX      -0.088000
     13 C           13.0120    -0.7590    21.3760 ca         1 LKX       0.126000
     14 CL          14.0250    -1.5320    20.1710 cl         1 LKX      -0.208000
     15 C3          11.4120     0.4490    23.2710 ca         1 LKX      -0.086000
     16 C2          12.7850     0.6720    23.2730 ca         1 LKX      -0.100000
     17 C1          13.6000     0.0700    22.3230 ca         1 LKX      -0.093000
     18 H1           6.2360     1.4730    16.8560 hn         1 LKX       0.497000
     19 H2           8.9070    -0.3530    23.2550 hc         1 LKX       0.069700
     20 H3           9.1210    -1.6690    22.1080 hc         1 LKX       0.069700
     21 H4           5.2820     1.1790    20.8130 h5         1 LKX       0.077800
     22 H5           7.4070    -1.3550    20.7530 hn         1 LKX       0.346500
     23 H6          11.2150    -1.6440    20.6100 ha         1 LKX       0.132000
     24 H7          10.7860     0.9220    24.0170 ha         1 LKX       0.118000
     25 H8          13.2270     1.3190    24.0210 ha         1 LKX       0.121000
     26 H9          14.6680     0.2360    22.3180 ha         1 LKX       0.132000
@<TRIPOS>BOND
     1     1     6 1   
     2     1     7 1   
     3     1    10 1   
     4     2     7 1   
     5     2     9 1   
     6     2    18 1   
     7     3     4 1   
     8     3    12 ar  
     9     3    15 ar  
    10     4     5 1   
    11     4    19 1   
    12     4    20 1   
    13     5    10 1   
    14     5    11 2   
    15     6     9 2   
    16     6    21 1   
    17     7     8 2   
    18    10    22 1   
    19    12    13 ar  
    20    12    23 1   
    21    13    14 1   
    22    13    17 ar  
    23    15    16 ar  
    24    15    24 1   
    25    16    17 ar  
    26    16    25 1   
    27    17    26 1   
@<TRIPOS>SUBSTRUCTURE
     1 LKX         1 TEMP              0 ****  ****    0 ROOT
