@<TRIPOS>MOLECULE
LKZ
   32    31     1     0     0
SMALL
abcg2


@<TRIPOS>ATOM
      1 C4         -23.7220    76.3330    -5.8920 c3         1 LKZ      -0.297400
      2 C5         -23.9360    77.6950    -6.5050 c          1 LKZ       0.599100
      3 C6         -25.0890    77.8000    -7.4770 c3         1 LKZ      -0.295400
      4 C7         -26.3830    78.0750    -6.7500 c          1 LKZ       0.587100
      5 C8         -27.6220    78.1110    -7.6130 c3         1 LKZ      -0.294400
      6 C10        -29.7480    78.6470    -3.8150 c3         1 LKZ      -0.323400
      7 C22        -22.6640    76.3710    -4.8090 c          1 LKZ       0.590100
      8 C11        -30.3250    78.2620    -2.4800 c          1 LKZ       0.581900
      9 O19        -29.6570    78.0730    -1.4980 o          1 LKZ      -0.503100
     10 C3         -30.4320    77.9430    -4.9680 c          1 LKZ       0.606100
     11 O23        -31.6310    77.8190    -5.0100 o          1 LKZ      -0.506100
     12 C2         -29.5200    77.4020    -6.0400 c3         1 LKZ      -0.292400
     13 C9         -28.8250    78.5080    -6.7940 c          1 LKZ       0.599100
     14 O20        -29.2190    79.6480    -6.7500 o          1 LKZ      -0.493100
     15 O21        -26.4230    78.2670    -5.5590 o          1 LKZ      -0.492100
     16 O22        -23.2380    78.6420    -6.2410 o          1 LKZ      -0.485100
     17 O24        -22.9640    76.5950    -3.6610 o          1 LKZ      -0.492100
     18 C23        -21.2570    76.1160    -5.2540 c3         1 LKZ      -0.196100
     19 H1         -24.6700    75.9690    -5.4870 hc         1 LKZ       0.082200
     20 H2         -23.4450    75.6500    -6.7020 hc         1 LKZ       0.082200
     21 H3         -25.2000    76.8870    -8.0690 hc         1 LKZ       0.088700
     22 H4         -24.9160    78.6170    -8.1830 hc         1 LKZ       0.088700
     23 H5         -27.4670    78.8200    -8.4300 hc         1 LKZ       0.090700
     24 H6         -27.7560    77.1230    -8.0650 hc         1 LKZ       0.090700
     25 H7         -28.6670    78.5090    -3.8230 hc         1 LKZ       0.103200
     26 H8         -29.9410    79.7210    -3.9400 hc         1 LKZ       0.103200
     27 H9         -31.4240    78.1830    -2.4480 h4         1 LKZ       0.006200
     28 H10        -30.0890    76.8120    -6.7660 hc         1 LKZ       0.090700
     29 H11        -28.7840    76.7280    -5.5930 hc         1 LKZ       0.090700
     30 H12        -20.5430    76.2850    -4.4510 hc         1 LKZ       0.063367
     31 H13        -21.1710    75.0820    -5.5950 hc         1 LKZ       0.063367
     32 H14        -21.0010    76.7460    -6.1070 hc         1 LKZ       0.063367
@<TRIPOS>BOND
     1     1     2 1   
     2     1     7 1   
     3     1    19 1   
     4     1    20 1   
     5     2     3 1   
     6     2    16 2   
     7     3     4 1   
     8     3    21 1   
     9     3    22 1   
    10     4     5 1   
    11     4    15 2   
    12     5    13 1   
    13     5    23 1   
    14     5    24 1   
    15     6     8 1   
    16     6    10 1   
    17     6    25 1   
    18     6    26 1   
    19     7    17 2   
    20     7    18 1   
    21     8     9 2   
    22     8    27 1   
    23    10    11 2   
    24    10    12 1   
    25    12    13 1   
    26    12    28 1   
    27    12    29 1   
    28    13    14 2   
    29    18    30 1   
    30    18    31 1   
    31    18    32 1   
@<TRIPOS>SUBSTRUCTURE
     1 LKZ         1 TEMP              0 ****  ****    0 ROOT
