@<TRIPOS>MOLECULE
LKZ
   32    31     1     0     0
SMALL
No Charge or Current Charge


@<TRIPOS>ATOM
      1 C4         -23.3080    76.9960    -7.2090 c3         1 LKZ      -0.297400
      2 C5         -23.9460    78.2890    -6.7340 c          1 LKZ       0.599100
      3 C6         -25.3710    78.5870    -7.1750 c3         1 LKZ      -0.295400
      4 C7         -26.3060    78.1820    -6.0500 c          1 LKZ       0.587100
      5 C8         -27.0870    76.8910    -6.2080 c3         1 LKZ      -0.294400
      6 C10        -29.4270    78.7630    -3.7000 c3         1 LKZ      -0.323400
      7 C22        -23.2310    76.0630    -6.0160 c          1 LKZ       0.590100
      8 C11        -30.6140    78.5780    -2.7830 c          1 LKZ       0.581900
      9 O19        -30.9840    77.4760    -2.3970 o          1 LKZ      -0.503100
     10 C3         -29.9120    78.4900    -5.1080 c          1 LKZ       0.606100
     11 O23        -30.5230    79.3410    -5.7360 o          1 LKZ      -0.506100
     12 C2         -29.6320    77.1200    -5.6980 c3         1 LKZ      -0.292400
     13 C9         -28.4820    77.2570    -6.6830 c          1 LKZ       0.599100
     14 O20        -28.6740    77.6250    -7.8310 o          1 LKZ      -0.493100
     15 O21        -26.4440    78.8780    -5.0580 o          1 LKZ      -0.492100
     16 O22        -23.3220    79.0760    -6.0390 o          1 LKZ      -0.485100
     17 O24        -24.2110    75.4430    -5.6330 o          1 LKZ      -0.492100
     18 C23        -21.8770    75.9290    -5.3240 c3         1 LKZ      -0.196100
     19 H1         -23.9240    76.5260    -7.9820 hc         1 LKZ       0.082200
     20 H2         -22.2930    77.2270    -7.5520 hc         1 LKZ       0.082200
     21 H3         -25.6110    78.0020    -8.0690 hc         1 LKZ       0.088700
     22 H4         -25.4650    79.6680    -7.3270 hc         1 LKZ       0.088700
     23 H5         -26.6240    76.2690    -6.9820 hc         1 LKZ       0.090700
     24 H6         -27.1340    76.3900    -5.2360 hc         1 LKZ       0.090700
     25 H7         -28.6530    78.0440    -3.4140 hc         1 LKZ       0.103200
     26 H8         -29.1090    79.8090    -3.6430 hc         1 LKZ       0.103200
     27 H9         -31.1410    79.5070    -2.4730 h4         1 LKZ       0.006200
     28 H10        -30.5210    76.7960    -6.2500 hc         1 LKZ       0.090700
     29 H11        -29.3500    76.4350    -4.8920 hc         1 LKZ       0.090700
     30 H12        -21.9100    75.2610    -4.4560 hc         1 LKZ       0.063367
     31 H13        -21.1350    75.5950    -6.0590 hc         1 LKZ       0.063367
     32 H14        -21.5080    76.9260    -5.0590 hc         1 LKZ       0.063367
@<TRIPOS>BOND
     1     1     2 1   
     2     1     7 1   
     3     1    19 1   
     4     1    20 1   
     5     2     3 1   
     6     2    16 2   
     7     3     4 1   
     8     3    21 1   
     9     3    22 1   
    10     4     5 1   
    11     4    15 2   
    12     5    13 1   
    13     5    23 1   
    14     5    24 1   
    15     6     8 1   
    16     6    10 1   
    17     6    25 1   
    18     6    26 1   
    19     7    17 2   
    20     7    18 1   
    21     8     9 2   
    22     8    27 1   
    23    10    11 2   
    24    10    12 1   
    25    12    13 1   
    26    12    28 1   
    27    12    29 1   
    28    13    14 2   
    29    18    30 1   
    30    18    31 1   
    31    18    32 1   
@<TRIPOS>SUBSTRUCTURE
     1 LKZ         1 TEMP              0 ****  ****    0 ROOT
