@<TRIPOS>MOLECULE
LL0
   21    21     1     0     0
SMALL
abcg2


@<TRIPOS>ATOM
      1 N1          74.7190     3.6000    54.5280 n8         1 LL0      -1.028100
      2 C4          70.2340     6.2840    54.3610 ca         1 LL0      -0.046000
      3 C5          70.5000     5.1530    55.1220 ca         1 LL0      -0.144000
      4 C6          71.5780     4.3520    54.7900 ca         1 LL0       0.196100
      5 C7          71.1090     2.1540    55.4440 c3         1 LL0       0.401300
      6 S1          73.7170     3.6020    53.2260 sy         1 LL0       1.163600
      7 O1          74.4220     4.2520    52.1350 o          1 LL0      -0.552000
      8 O2          73.1360     2.2840    53.0240 o          1 LL0      -0.552000
      9 C1          72.3900     4.6810    53.7090 ca         1 LL0      -0.268500
     10 C2          72.1300     5.8180    52.9610 ca         1 LL0       0.000000
     11 C3          71.0450     6.6190    53.2880 ca         1 LL0      -0.131000
     12 F1          71.8620     1.1050    55.8000 f          1 LL0      -0.112000
     13 F2          70.1070     2.2370    56.3500 f          1 LL0      -0.112000
     14 H1          74.6320     2.7850    55.1230 hn         1 LL0       0.492000
     15 H2          75.6830     3.8010    54.2870 hn         1 LL0       0.492000
     16 H3          69.3890     6.9090    54.6170 ha         1 LL0       0.123000
     17 H4          69.8790     4.9100    55.9740 ha         1 LL0       0.139000
     18 H5          70.6790     2.0030    54.4520 h3         1 LL0       0.083700
     19 H6          72.7630     6.0780    52.1240 ha         1 LL0       0.148000
     20 H7          70.8390     7.5040    52.7030 ha         1 LL0       0.126000
     21 O3          71.9120     3.2540    55.5410 os         1 LL0      -0.419100
@<TRIPOS>BOND
     1     1     6 1   
     2     1    14 1   
     3     1    15 1   
     4     2     3 ar  
     5     2    11 ar  
     6     2    16 1   
     7     3     4 ar  
     8     3    17 1   
     9     4     9 ar  
    10     4    21 1   
    11     5    12 1   
    12     5    13 1   
    13     5    18 1   
    14     5    21 1   
    15     6     7 2   
    16     6     8 2   
    17     6     9 1   
    18     9    10 ar  
    19    10    11 ar  
    20    10    19 1   
    21    11    20 1   
@<TRIPOS>SUBSTRUCTURE
     1 LL0         1 TEMP              0 ****  ****    0 ROOT
