@<TRIPOS>MOLECULE
LL0
   21    21     1     0     0
SMALL
No Charge or Current Charge


@<TRIPOS>ATOM
      1 N1          74.7110     3.5310    54.5050 n8         1 LL0      -1.028100
      2 C4          70.1130     6.0510    54.2020 ca         1 LL0      -0.046000
      3 C5          70.4000     4.7820    54.7340 ca         1 LL0      -0.144000
      4 C6          71.6100     4.1280    54.4090 ca         1 LL0       0.196100
      5 C7          71.0870     2.1890    55.8620 c3         1 LL0       0.401300
      6 S1          74.0560     3.9470    53.0690 sy         1 LL0       1.163600
      7 O1          74.9810     4.9110    52.4730 o          1 LL0      -0.552000
      8 O2          73.7690     2.6550    52.4510 o          1 LL0      -0.552000
      9 C1          72.5250     4.7550    53.5380 ca         1 LL0      -0.268500
     10 C2          72.2330     6.0320    53.0120 ca         1 LL0       0.000000
     11 C3          71.0310     6.6760    53.3450 ca         1 LL0      -0.131000
     12 F1          71.5770     0.9500    56.0890 f          1 LL0      -0.112000
     13 F2          71.0660     2.8150    57.0610 f          1 LL0      -0.112000
     14 H1          73.8610     3.2770    55.0080 hn         1 LL0       0.492000
     15 H2          75.1090     2.6280    54.2620 hn         1 LL0       0.492000
     16 H3          69.1810     6.5500    54.4580 ha         1 LL0       0.123000
     17 H4          69.6700     4.3290    55.3970 ha         1 LL0       0.139000
     18 H5          70.0660     2.0990    55.4780 h3         1 LL0       0.083700
     19 H6          72.9310     6.5300    52.3380 ha         1 LL0       0.148000
     20 H7          70.8090     7.6590    52.9350 ha         1 LL0       0.126000
     21 O3          71.9360     2.8910    54.9340 os         1 LL0      -0.419100
@<TRIPOS>BOND
     1     1     6 1   
     2     1    14 1   
     3     1    15 1   
     4     2     3 ar  
     5     2    11 ar  
     6     2    16 1   
     7     3     4 ar  
     8     3    17 1   
     9     4     9 ar  
    10     4    21 1   
    11     5    12 1   
    12     5    13 1   
    13     5    18 1   
    14     5    21 1   
    15     6     7 2   
    16     6     8 2   
    17     6     9 1   
    18     9    10 ar  
    19    10    11 ar  
    20    10    19 1   
    21    11    20 1   
@<TRIPOS>SUBSTRUCTURE
     1 LL0         1 TEMP              0 ****  ****    0 ROOT
