@<TRIPOS>MOLECULE
LL1
   24    26     1     0     0
SMALL
abcg2


@<TRIPOS>ATOM
      1 C4           1.1390    -0.2100     0.0080 ca         1 LL1      -0.207900
      2 C5           1.4440    -1.5740     0.1270 ca         1 LL1      -0.038000
      3 C6           2.7670    -1.9500     0.1630 ca         1 LL1      -0.145000
      4 C1           3.8030    -0.9960     0.0880 ca         1 LL1      -0.072000
      5 C2           3.5370     0.3490    -0.0120 ca         1 LL1      -0.129000
      6 C3           2.1900     0.7230    -0.0460 ca         1 LL1      -0.045200
      7 N11          1.6030     1.9410    -0.1170 na         1 LL1      -0.050400
      8 N12          0.2810     1.8680    -0.1140 nc         1 LL1      -0.506100
      9 C13         -0.0430     0.5940    -0.0430 cd         1 LL1       0.389500
     10 C14         -1.4500     0.2000    -0.0170 ca         1 LL1      -0.049900
     11 C15         -1.8760    -1.0560    -0.4440 ca         1 LL1      -0.146500
     12 C16         -3.2280    -1.3600    -0.4010 ca         1 LL1       0.329400
     13 N17         -4.1620    -0.5180     0.0240 nb         1 LL1      -0.661000
     14 C18         -3.7550     0.6820     0.4260 ca         1 LL1       0.329400
     15 C19         -2.4320     1.0860     0.4280 ca         1 LL1      -0.146500
     16 H5           0.6670    -2.3230     0.1990 ha         1 LL1       0.120000
     17 H6           3.0220    -2.9980     0.2530 ha         1 LL1       0.116000
     18 H1           4.8310    -1.3320     0.1190 ha         1 LL1       0.115000
     19 H2           4.3300     1.0840    -0.0580 ha         1 LL1       0.121000
     20 H15         -1.1840    -1.7910    -0.8310 ha         1 LL1       0.129500
     21 H16         -3.5670    -2.3340    -0.7350 h4         1 LL1       0.018100
     22 H18         -4.5250     1.3640     0.7700 h4         1 LL1       0.018100
     23 H19         -2.1700     2.0740     0.7810 ha         1 LL1       0.129500
     24 HN11         2.0500     2.8410    -0.1880 hn         1 LL1       0.380000
@<TRIPOS>BOND
     1     1     2 ar  
     2     1     6 ar  
     3     1     9 1   
     4     2     3 ar  
     5     2    16 1   
     6     3     4 ar  
     7     3    17 1   
     8     4     5 ar  
     9     4    18 1   
    10     5     6 ar  
    11     5    19 1   
    12     6     7 1   
    13     7     8 1   
    14     7    24 1   
    15     8     9 2   
    16     9    10 1   
    17    10    11 ar  
    18    10    15 ar  
    19    11    12 ar  
    20    11    20 1   
    21    12    13 ar  
    22    12    21 1   
    23    13    14 ar  
    24    14    15 ar  
    25    14    22 1   
    26    15    23 1   
@<TRIPOS>SUBSTRUCTURE
     1 LL1         1 TEMP              0 ****  ****    0 ROOT
