@<TRIPOS>MOLECULE
LL1
   24    26     1     0     0
SMALL
No Charge or Current Charge


@<TRIPOS>ATOM
      1 C4           1.1590    -0.1300     0.0080 ca         1 LL1      -0.207900
      2 C5           1.3630    -1.5000     0.2400 ca         1 LL1      -0.038000
      3 C6           2.6950    -1.9640     0.2850 ca         1 LL1      -0.145000
      4 C1           3.7760    -1.0640     0.1230 ca         1 LL1      -0.072000
      5 C2           3.5320     0.3130    -0.0740 ca         1 LL1      -0.129000
      6 C3           2.1980     0.7390    -0.1200 ca         1 LL1      -0.045200
      7 N11          1.6910     2.0190    -0.2480 na         1 LL1      -0.050400
      8 N12          0.2860     1.9970    -0.1940 nc         1 LL1      -0.506100
      9 C13         -0.0310     0.6960    -0.0640 cd         1 LL1       0.389500
     10 C14         -1.4280     0.2190     0.0020 ca         1 LL1      -0.049900
     11 C15         -1.8270    -1.0040    -0.5760 ca         1 LL1      -0.146500
     12 C16         -3.1790    -1.3860    -0.5340 ca         1 LL1       0.329400
     13 N17         -4.1450    -0.6210     0.0240 nb         1 LL1      -0.661000
     14 C18         -3.7750     0.5690     0.5520 ca         1 LL1       0.329400
     15 C19         -2.4470     1.0270     0.5500 ca         1 LL1      -0.146500
     16 H5           0.5340    -2.1870     0.3940 ha         1 LL1       0.120000
     17 H6           2.8930    -3.0200     0.4560 ha         1 LL1       0.116000
     18 H1           4.7990    -1.4310     0.1650 ha         1 LL1       0.115000
     19 H2           4.3540     1.0180    -0.1760 ha         1 LL1       0.121000
     20 H15         -1.1120    -1.6500    -1.0760 ha         1 LL1       0.129500
     21 H16         -3.5020    -2.3290    -0.9720 h4         1 LL1       0.018100
     22 H18         -4.5700     1.1760     0.9840 h4         1 LL1       0.018100
     23 H19         -2.2170     1.9970     0.9820 ha         1 LL1       0.129500
     24 HN11         2.2240     2.8820    -0.3500 hn         1 LL1       0.380000
@<TRIPOS>BOND
     1     1     2 ar  
     2     1     6 ar  
     3     1     9 1   
     4     2     3 ar  
     5     2    16 1   
     6     3     4 ar  
     7     3    17 1   
     8     4     5 ar  
     9     4    18 1   
    10     5     6 ar  
    11     5    19 1   
    12     6     7 1   
    13     7     8 1   
    14     7    24 1   
    15     8     9 2   
    16     9    10 1   
    17    10    11 ar  
    18    10    15 ar  
    19    11    12 ar  
    20    11    20 1   
    21    12    13 ar  
    22    12    21 1   
    23    13    14 ar  
    24    14    15 ar  
    25    14    22 1   
    26    15    23 1   
@<TRIPOS>SUBSTRUCTURE
     1 LL1         1 TEMP              0 ****  ****    0 ROOT
