@<TRIPOS>MOLECULE
LL2
   23    24     1     0     0
SMALL
bcc


@<TRIPOS>ATOM
      1 C8          -2.2930    -1.1210     0.6640 ca         1 LL2      -0.119500
      2 C11         -3.3550    -1.4070    -0.1870 ca         1 LL2      -0.128000
      3 C13         -3.7990    -0.4520    -1.0890 ca         1 LL2      -0.127000
      4 C12         -3.1750     0.7900    -1.1380 ca         1 LL2      -0.128000
      5 C9          -2.1150     1.0700    -0.2900 ca         1 LL2      -0.119500
      6 C5          -1.6630     0.1180     0.6220 ca         1 LL2      -0.085300
      7 C2          -0.4940     0.4230     1.5260 c3         1 LL2       0.051200
      8 C1           0.7980     0.5060     0.7860 cc         1 LL2      -0.153700
      9 S4           1.4470    -0.8550    -0.0870 ss         1 LL2      -0.259300
     10 C3           1.6420     1.5520     0.6360 cd         1 LL2       0.379200
     11 N6           2.7670     1.3490    -0.1210 nd         1 LL2      -0.723000
     12 C7           2.8040     0.1320    -0.5660 cc         1 LL2       0.692300
     13 N10          3.8220    -0.3920    -1.2920 nv         1 LL2      -0.927500
     14 H8          -1.9520    -1.8700     1.3700 ha         1 LL2       0.130500
     15 H11         -3.8330    -2.3770    -0.1420 ha         1 LL2       0.130000
     16 H13         -4.6280    -0.6700    -1.7510 ha         1 LL2       0.130000
     17 H12         -3.5190     1.5410    -1.8370 ha         1 LL2       0.130000
     18 H9          -1.6300     2.0390    -0.3370 ha         1 LL2       0.130500
     19 H2          -0.6480     1.3820     2.0280 hc         1 LL2       0.059200
     20 H2A         -0.4340    -0.3330     2.3140 hc         1 LL2       0.059200
     21 H3           1.4690     2.5260     1.0750 h4         1 LL2       0.037100
     22 HN10         3.6400    -1.2080    -1.8530 hn         1 LL2       0.420800
     23 HN1A         4.4310     0.2790    -1.7330 hn         1 LL2       0.420800
@<TRIPOS>BOND
     1     1     2 ar  
     2     1     6 ar  
     3     1    14 1   
     4     2     3 ar  
     5     2    15 1   
     6     3     4 ar  
     7     3    16 1   
     8     4     5 ar  
     9     4    17 1   
    10     5     6 ar  
    11     5    18 1   
    12     6     7 1   
    13     7     8 1   
    14     7    19 1   
    15     7    20 1   
    16     8     9 1   
    17     8    10 2   
    18     9    12 1   
    19    10    11 1   
    20    10    21 1   
    21    11    12 2   
    22    12    13 1   
    23    13    22 1   
    24    13    23 1   
@<TRIPOS>SUBSTRUCTURE
     1 LL2         1 TEMP              0 ****  ****    0 ROOT
