@<TRIPOS>MOLECULE
LL2
   23    24     1     0     0
SMALL
No Charge or Current Charge


@<TRIPOS>ATOM
      1 C8          -2.0530    -1.0710     0.0980 ca         1 LL2      -0.101500
      2 C11         -3.2210    -1.1630    -0.6800 ca         1 LL2      -0.110000
      3 C13         -3.9910    -0.0140    -0.9300 ca         1 LL2      -0.109000
      4 C12         -3.5920     1.2250    -0.4030 ca         1 LL2      -0.110000
      5 C9          -2.4250     1.3170     0.3750 ca         1 LL2      -0.101500
      6 C5          -1.6500     0.1680     0.6310 ca         1 LL2      -0.085300
      7 C2          -0.3780     0.2630     1.4640 c3         1 LL2       0.051200
      8 C1           0.8700     0.2760     0.6200 cc         1 LL2      -0.233300
      9 S4           2.3480    -0.4560     1.1820 ss         1 LL2      -0.114400
     10 C3           1.0340     0.8260    -0.6360 cd         1 LL2       0.313900
     11 N6           2.3070     0.6880    -1.1790 nd         1 LL2      -0.723000
     12 C7           3.0550     0.0490    -0.3240 cc         1 LL2       0.692300
     13 N10          4.3220    -0.1940    -0.6690 nv         1 LL2      -1.037900
     14 H8          -1.4600    -1.9640     0.2840 ha         1 LL2       0.112500
     15 H11         -3.5270    -2.1230    -1.0890 ha         1 LL2       0.112000
     16 H13         -4.8940    -0.0850    -1.5330 ha         1 LL2       0.112000
     17 H12         -4.1860     2.1150    -0.5980 ha         1 LL2       0.112000
     18 H9          -2.1220     2.2820     0.7750 ha         1 LL2       0.112500
     19 H2          -0.4000     1.1650     2.0880 hc         1 LL2       0.059200
     20 H2A         -0.3380    -0.5790     2.1670 hc         1 LL2       0.059200
     21 H3           0.2670     1.3380    -1.2050 h4         1 LL2       0.037100
     22 HN10         4.7870    -0.9540    -0.1860 hn         1 LL2       0.476000
     23 HN1A         4.5280    -0.0890    -1.6540 hn         1 LL2       0.476000
@<TRIPOS>BOND
     1     1     2 ar  
     2     1     6 ar  
     3     1    14 1   
     4     2     3 ar  
     5     2    15 1   
     6     3     4 ar  
     7     3    16 1   
     8     4     5 ar  
     9     4    17 1   
    10     5     6 ar  
    11     5    18 1   
    12     6     7 1   
    13     7     8 1   
    14     7    19 1   
    15     7    20 1   
    16     8     9 1   
    17     8    10 2   
    18     9    12 1   
    19    10    11 1   
    20    10    21 1   
    21    11    12 2   
    22    12    13 1   
    23    13    22 1   
    24    13    23 1   
@<TRIPOS>SUBSTRUCTURE
     1 LL2         1 TEMP              0 ****  ****    0 ROOT
