@<TRIPOS>MOLECULE
LL3
   44    47     1     0     0
SMALL
bcc


@<TRIPOS>ATOM
      1 C34          6.5570     0.5250     0.4790 ca         1 LL3      -0.110500
      2 C43          7.7960    -0.0110     0.1570 ca         1 LL3      -0.127000
      3 C41          7.9230    -1.3710    -0.0930 ca         1 LL3      -0.123000
      4 C39          6.8030    -2.1890    -0.0180 ca         1 LL3      -0.127000
      5 C37          5.5660    -1.6470     0.3040 ca         1 LL3      -0.110500
      6 C36          5.4280    -0.2850     0.5550 ca         1 LL3      -0.069300
      7 C01          4.0910     0.2980     0.9010 c3         1 LL3      -0.109100
      8 C04          3.3500     0.7950    -0.3340 c          1 LL3       0.673100
      9 O06          3.8500     0.6930    -1.4440 o          1 LL3      -0.583100
     10 N05          2.1370     1.3580    -0.1360 n          1 LL3      -0.485800
     11 C18          1.3230     1.7880    -1.2590 c6         1 LL3       0.097500
     12 C15          0.0790     0.9190    -1.3870 c6         1 LL3      -0.096400
     13 C07          1.4340     1.4140     1.1320 c6         1 LL3       0.097500
     14 C10          0.1930     0.5300     1.0990 c6         1 LL3      -0.096400
     15 C13         -0.7100     0.9420    -0.0710 c6         1 LL3      -0.099000
     16 C21         -1.9380     0.1110    -0.1360 cc         1 LL3       0.539700
     17 N25         -3.1620     0.4810     0.0430 nd         1 LL3      -0.726000
     18 O22         -1.8370    -1.1850    -0.3950 os         1 LL3      -0.132100
     19 N23         -3.1020    -1.7110    -0.3840 nc         1 LL3      -0.367300
     20 C24         -3.8550    -0.6840    -0.1190 cd         1 LL3       0.642500
     21 C26         -5.2930    -0.7460    -0.0010 cd         1 LL3      -0.151600
     22 C27         -6.1230    -1.8240    -0.1410 cc         1 LL3      -0.099000
     23 C29         -7.4840    -1.4850     0.0510 cc         1 LL3      -0.160000
     24 C31         -7.6570    -0.1620     0.3340 cd         1 LL3      -0.123100
     25 S33         -6.1750     0.6850     0.3680 ss         1 LL3       0.005200
     26 H34          6.4670     1.5870     0.6760 ha         1 LL3       0.127000
     27 H43          8.6640     0.6340     0.1060 ha         1 LL3       0.130000
     28 H41          8.8890    -1.7920    -0.3410 ha         1 LL3       0.130000
     29 H39          6.8930    -3.2510    -0.2050 ha         1 LL3       0.130000
     30 H37          4.6980    -2.2930     0.3640 ha         1 LL3       0.127000
     31 H01          3.4790    -0.4500     1.4130 hc         1 LL3       0.063200
     32 H01A         4.2150     1.1230     1.6090 hc         1 LL3       0.063200
     33 H18          1.0310     2.8310    -1.1010 h1         1 LL3       0.059950
     34 H18A         1.9110     1.7490    -2.1710 h1         1 LL3       0.059950
     35 H15         -0.5380     1.2970    -2.2050 hc         1 LL3       0.063950
     36 H15A         0.3740    -0.1020    -1.6390 hc         1 LL3       0.063950
     37 H07          2.0790     1.1160     1.9520 h1         1 LL3       0.059950
     38 H07A         1.1430     2.4520     1.3220 h1         1 LL3       0.059950
     39 H10          0.4980    -0.5150     0.9960 hc         1 LL3       0.063950
     40 H10A        -0.3430     0.6250     2.0450 hc         1 LL3       0.063950
     41 H13         -1.0590     1.9640     0.1070 hc         1 LL3       0.083700
     42 H27         -5.7740    -2.8200    -0.3740 ha         1 LL3       0.165000
     43 H29         -8.2970    -2.1920    -0.0180 ha         1 LL3       0.156000
     44 H31         -8.5820     0.3590     0.5260 h4         1 LL3       0.170000
@<TRIPOS>BOND
     1     1     2 ar  
     2     1     6 ar  
     3     1    26 1   
     4     2     3 ar  
     5     2    27 1   
     6     3     4 ar  
     7     3    28 1   
     8     4     5 ar  
     9     4    29 1   
    10     5     6 ar  
    11     5    30 1   
    12     6     7 1   
    13     7     8 1   
    14     7    31 1   
    15     7    32 1   
    16     8     9 2   
    17     8    10 1   
    18    10    11 1   
    19    10    13 1   
    20    11    12 1   
    21    11    33 1   
    22    11    34 1   
    23    12    15 1   
    24    12    35 1   
    25    12    36 1   
    26    13    14 1   
    27    13    37 1   
    28    13    38 1   
    29    14    15 1   
    30    14    39 1   
    31    14    40 1   
    32    15    16 1   
    33    15    41 1   
    34    16    17 2   
    35    16    18 1   
    36    17    20 1   
    37    18    19 1   
    38    19    20 2   
    39    20    21 1   
    40    21    22 2   
    41    21    25 1   
    42    22    23 1   
    43    22    42 1   
    44    23    24 2   
    45    23    43 1   
    46    24    25 1   
    47    24    44 1   
@<TRIPOS>SUBSTRUCTURE
     1 LL3         1 TEMP              0 ****  ****    0 ROOT
