@<TRIPOS>MOLECULE
LL3
   44    47     1     0     0
SMALL
No Charge or Current Charge


@<TRIPOS>ATOM
      1 C34          6.6380     0.5750     0.3740 ca         1 LL3      -0.092500
      2 C43          7.9410     0.1520     0.0600 ca         1 LL3      -0.109000
      3 C41          8.2150    -1.2160    -0.1060 ca         1 LL3      -0.105000
      4 C39          7.1850    -2.1610     0.0410 ca         1 LL3      -0.109000
      5 C37          5.8820    -1.7370     0.3550 ca         1 LL3      -0.092500
      6 C36          5.6020    -0.3670     0.5220 ca         1 LL3      -0.069300
      7 C01          4.1890     0.0940     0.8660 c3         1 LL3      -0.109100
      8 C04          3.3220     0.4960    -0.3460 c          1 LL3       0.606100
      9 O06          3.6570     0.1880    -1.4840 o          1 LL3      -0.583100
     10 N05          2.1430     1.2520    -0.1260 n          1 LL3      -0.418800
     11 C18          1.3090     1.7490    -1.2540 c6         1 LL3       0.097500
     12 C15         -0.0160     0.9550    -1.3500 c6         1 LL3      -0.096400
     13 C07          1.4470     1.3440     1.1890 c6         1 LL3       0.097500
     14 C10          0.1230     0.5420     1.1640 c6         1 LL3      -0.096400
     15 C13         -0.7930     1.0090    -0.0040 c6         1 LL3      -0.099000
     16 C21         -2.0580     0.1810    -0.0700 cc         1 LL3       0.495300
     17 N25         -3.2950     0.6060     0.0680 nd         1 LL3      -0.726000
     18 O22         -1.9780    -1.1610    -0.2960 os         1 LL3      -0.087700
     19 N23         -3.3060    -1.6330    -0.3000 nc         1 LL3      -0.367300
     20 C24         -4.0270    -0.5450    -0.0810 cd         1 LL3       0.642500
     21 C26         -5.4570    -0.5640    -0.0050 cd         1 LL3      -0.296500
     22 C27         -6.2070    -1.7070    -0.1520 cc         1 LL3      -0.081000
     23 C29         -7.5970    -1.4590    -0.0340 cc         1 LL3      -0.142000
     24 C31         -7.9070    -0.1410     0.2000 cd         1 LL3      -0.250000
     25 S33         -6.4480     0.8700     0.2860 ss         1 LL3       0.295000
     26 H34          6.4330     1.6360     0.5000 ha         1 LL3       0.109000
     27 H43          8.7380     0.8840    -0.0540 ha         1 LL3       0.112000
     28 H41          9.2240    -1.5440    -0.3490 ha         1 LL3       0.112000
     29 H39          7.3960    -3.2200    -0.0880 ha         1 LL3       0.112000
     30 H37          5.0900    -2.4740     0.4660 ha         1 LL3       0.109000
     31 H01          3.6320    -0.6610     1.4320 hc         1 LL3       0.063200
     32 H01A         4.2010     0.9300     1.5740 hc         1 LL3       0.063200
     33 H18          1.0860     2.8130    -1.0900 h1         1 LL3       0.059950
     34 H18A         1.8510     1.6800    -2.2080 h1         1 LL3       0.059950
     35 H15         -0.6340     1.3640    -2.1610 hc         1 LL3       0.063950
     36 H15A         0.2090    -0.0860    -1.6200 hc         1 LL3       0.063950
     37 H07          2.0690     0.9770     2.0150 h1         1 LL3       0.059950
     38 H07A         1.2280     2.4010     1.4010 h1         1 LL3       0.059950
     39 H10          0.3540    -0.5280     1.0610 hc         1 LL3       0.063950
     40 H10A        -0.3980     0.6590     2.1240 hc         1 LL3       0.063950
     41 H13         -1.0750     2.0540     0.1840 hc         1 LL3       0.083700
     42 H27         -5.8070    -2.7010    -0.3380 ha         1 LL3       0.147000
     43 H29         -8.3350    -2.2510    -0.1240 ha         1 LL3       0.138000
     44 H31         -8.8850     0.3070     0.3270 h4         1 LL3       0.152000
@<TRIPOS>BOND
     1     1     2 ar  
     2     1     6 ar  
     3     1    26 1   
     4     2     3 ar  
     5     2    27 1   
     6     3     4 ar  
     7     3    28 1   
     8     4     5 ar  
     9     4    29 1   
    10     5     6 ar  
    11     5    30 1   
    12     6     7 1   
    13     7     8 1   
    14     7    31 1   
    15     7    32 1   
    16     8     9 2   
    17     8    10 1   
    18    10    11 1   
    19    10    13 1   
    20    11    12 1   
    21    11    33 1   
    22    11    34 1   
    23    12    15 1   
    24    12    35 1   
    25    12    36 1   
    26    13    14 1   
    27    13    37 1   
    28    13    38 1   
    29    14    15 1   
    30    14    39 1   
    31    14    40 1   
    32    15    16 1   
    33    15    41 1   
    34    16    17 2   
    35    16    18 1   
    36    17    20 1   
    37    18    19 1   
    38    19    20 2   
    39    20    21 1   
    40    21    22 2   
    41    21    25 1   
    42    22    23 1   
    43    22    42 1   
    44    23    24 2   
    45    23    43 1   
    46    24    25 1   
    47    24    44 1   
@<TRIPOS>SUBSTRUCTURE
     1 LL3         1 TEMP              0 ****  ****    0 ROOT
