@<TRIPOS>MOLECULE
LL4
   46    48     1     0     0
SMALL
bcc


@<TRIPOS>ATOM
      1 CAV          7.0880    -1.3370    -1.6450 c3         1 LL4      -0.087600
      2 CAU          6.6780    -1.5280    -0.1870 c3         1 LL4      -0.063700
      3 CAW          7.9080    -1.8020     0.6740 c3         1 LL4      -0.087600
      4 CAT          5.9120    -0.3240     0.3660 c3         1 LL4      -0.064400
      5 CAS          4.5800    -0.0830    -0.3290 c3         1 LL4      -0.152400
      6 CAQ          3.7850     1.0560     0.2830 c          1 LL4       0.675100
      7 OAR          4.2150     1.6800     1.2440 o          1 LL4      -0.599100
      8 NAN          2.5950     1.3590    -0.2890 n          1 LL4      -0.484800
      9 CAO          1.7420     2.3940     0.2670 c6         1 LL4       0.098000
     10 CAP          0.4560     1.7950     0.8220 c6         1 LL4      -0.096400
     11 CAM          1.9620     0.6190    -1.3620 c6         1 LL4       0.098000
     12 CAL          0.6830    -0.0510    -0.8760 c6         1 LL4      -0.096400
     13 CAK         -0.2630     0.9970    -0.2700 c6         1 LL4      -0.098000
     14 CAH         -1.5150     0.3610     0.2090 cc         1 LL4       0.538700
     15 NAG         -2.6840     0.3780    -0.3410 nd         1 LL4      -0.726000
     16 OAI         -1.4940    -0.3640     1.3200 os         1 LL4      -0.131100
     17 NAJ         -2.7530    -0.8650     1.5140 nc         1 LL4      -0.368300
     18 CAF         -3.4250    -0.4000     0.5020 cd         1 LL4       0.642500
     19 CAE         -4.8240    -0.6720     0.2710 cd         1 LL4      -0.150600
     20 CAD         -5.6860    -1.4270     1.0180 cc         1 LL4      -0.099000
     21 CAC         -6.9870    -1.4660     0.4620 cc         1 LL4      -0.160000
     22 CAB         -7.0840    -0.7430    -0.6910 cd         1 LL4      -0.123100
     23 SAA         -5.6020    -0.0080    -1.1130 ss         1 LL4       0.006200
     24 HAV          6.2310    -1.1920    -2.3040 hc         1 LL4       0.032867
     25 HAVA         7.7410    -0.4680    -1.7510 hc         1 LL4       0.032867
     26 HAVB         7.6340    -2.2070    -2.0140 hc         1 LL4       0.032867
     27 HAU          6.0200    -2.4040    -0.1270 hc         1 LL4       0.041700
     28 HAW          8.6000    -0.9580     0.6410 hc         1 LL4       0.032867
     29 HAWA         7.6360    -1.9680     1.7180 hc         1 LL4       0.032867
     30 HAWB         8.4470    -2.6850     0.3270 hc         1 LL4       0.032867
     31 HAT          5.7360    -0.4820     1.4330 hc         1 LL4       0.056700
     32 HATA         6.5430     0.5670     0.2870 hc         1 LL4       0.056700
     33 HAS          4.7360     0.1270    -1.3910 hc         1 LL4       0.056700
     34 HASA         3.9830    -1.0000    -0.2940 hc         1 LL4       0.056700
     35 HAO          2.2770     2.9290     1.0460 h1         1 LL4       0.059200
     36 HAOA         1.5090     3.1160    -0.5230 h1         1 LL4       0.059200
     37 HAP          0.6990     1.1510     1.6710 hc         1 LL4       0.063700
     38 HAPA        -0.1850     2.5990     1.1900 hc         1 LL4       0.063700
     39 HAM          1.7250     1.3150    -2.1730 h1         1 LL4       0.059200
     40 HAMA         2.6330    -0.1250    -1.7790 h1         1 LL4       0.059200
     41 HAL          0.2010    -0.5560    -1.7150 hc         1 LL4       0.063700
     42 HALA         0.9300    -0.8120    -0.1320 hc         1 LL4       0.063700
     43 HAK         -0.5660     1.6830    -1.0670 hc         1 LL4       0.083700
     44 HAD         -5.4010    -1.9320     1.9290 ha         1 LL4       0.165000
     45 HAC         -7.8130    -2.0090     0.8970 ha         1 LL4       0.156000
     46 HAB         -7.9540    -0.6040    -1.3140 h4         1 LL4       0.170000
@<TRIPOS>BOND
     1     1     2 1   
     2     1    24 1   
     3     1    25 1   
     4     1    26 1   
     5     2     3 1   
     6     2     4 1   
     7     2    27 1   
     8     3    28 1   
     9     3    29 1   
    10     3    30 1   
    11     4     5 1   
    12     4    31 1   
    13     4    32 1   
    14     5     6 1   
    15     5    33 1   
    16     5    34 1   
    17     6     7 2   
    18     6     8 1   
    19     8     9 1   
    20     8    11 1   
    21     9    10 1   
    22     9    35 1   
    23     9    36 1   
    24    10    13 1   
    25    10    37 1   
    26    10    38 1   
    27    11    12 1   
    28    11    39 1   
    29    11    40 1   
    30    12    13 1   
    31    12    41 1   
    32    12    42 1   
    33    13    14 1   
    34    13    43 1   
    35    14    15 2   
    36    14    16 1   
    37    15    18 1   
    38    16    17 1   
    39    17    18 2   
    40    18    19 1   
    41    19    20 2   
    42    19    23 1   
    43    20    21 1   
    44    20    44 1   
    45    21    22 2   
    46    21    45 1   
    47    22    23 1   
    48    22    46 1   
@<TRIPOS>SUBSTRUCTURE
     1 LL4         1 TEMP              0 ****  ****    0 ROOT
