@<TRIPOS>MOLECULE
LL4
   46    48     1     0     0
SMALL
No Charge or Current Charge


@<TRIPOS>ATOM
      1 CAV          7.2870    -1.2940    -1.5770 c3         1 LL4      -0.087600
      2 CAU          6.8280    -1.5320    -0.1180 c3         1 LL4      -0.063700
      3 CAW          8.0380    -1.8570     0.7880 c3         1 LL4      -0.087600
      4 CAT          6.0060    -0.3480     0.4590 c3         1 LL4      -0.064400
      5 CAS          4.6770    -0.0580    -0.2890 c3         1 LL4      -0.152400
      6 CAQ          3.7800     1.0340     0.3310 c          1 LL4       0.608100
      7 OAR          4.1050     1.5940     1.3710 o          1 LL4      -0.599100
      8 NAN          2.5850     1.4020    -0.3380 n          1 LL4      -0.417800
      9 CAO          1.6610     2.4310     0.2090 c6         1 LL4       0.098000
     10 CAP          0.3420     1.7770     0.6870 c6         1 LL4      -0.096400
     11 CAM          1.9990     0.6560    -1.4860 c6         1 LL4       0.098000
     12 CAL          0.6940    -0.0560    -1.0580 c6         1 LL4      -0.096400
     13 CAK         -0.3220     0.9590    -0.4590 c6         1 LL4      -0.098000
     14 CAH         -1.5730     0.2590     0.0250 cc         1 LL4       0.494300
     15 NAG         -2.8030     0.4370    -0.4070 nd         1 LL4      -0.726000
     16 OAI         -1.4870    -0.6720     1.0170 os         1 LL4      -0.086700
     17 NAJ         -2.8020    -1.1300     1.2340 nc         1 LL4      -0.368300
     18 CAF         -3.5230    -0.4390     0.3660 cd         1 LL4       0.642500
     19 CAE         -4.9420    -0.5900     0.2410 cd         1 LL4      -0.295500
     20 CAD         -5.6800    -1.4610     1.0050 cc         1 LL4      -0.081000
     21 CAC         -7.0600    -1.4210     0.6880 cc         1 LL4      -0.142000
     22 CAB         -7.3750    -0.5290    -0.3080 cd         1 LL4      -0.250000
     23 SAA         -5.9320     0.3180    -0.9070 ss         1 LL4       0.296000
     24 HAV          6.4290    -1.2110    -2.2550 hc         1 LL4       0.032867
     25 HAVA         7.8810    -0.3760    -1.6560 hc         1 LL4       0.032867
     26 HAVB         7.9030    -2.1310    -1.9300 hc         1 LL4       0.032867
     27 HAU          6.1810    -2.4180    -0.1180 hc         1 LL4       0.041700
     28 HAW          8.7320    -1.0090     0.8320 hc         1 LL4       0.032867
     29 HAWA         7.7090    -2.0850     1.8090 hc         1 LL4       0.032867
     30 HAWB         8.5840    -2.7290     0.4090 hc         1 LL4       0.032867
     31 HAT          5.7700    -0.5670     1.5080 hc         1 LL4       0.056700
     32 HATA         6.6240     0.5590     0.4600 hc         1 LL4       0.056700
     33 HAS          4.8480     0.2140    -1.3360 hc         1 LL4       0.056700
     34 HASA         4.0740    -0.9680    -0.3910 hc         1 LL4       0.056700
     35 HAO          2.1220     2.9800     1.0410 h1         1 LL4       0.059200
     36 HAOA         1.4400     3.1670    -0.5780 h1         1 LL4       0.059200
     37 HAP          0.5570     1.1240     1.5450 hc         1 LL4       0.063700
     38 HAPA        -0.3460     2.5530     1.0480 hc         1 LL4       0.063700
     39 HAM          1.7750     1.3680    -2.2930 h1         1 LL4       0.059200
     40 HAMA         2.6960    -0.0820    -1.9040 h1         1 LL4       0.059200
     41 HAL          0.2510    -0.5690    -1.9230 hc         1 LL4       0.063700
     42 HALA         0.9350    -0.8350    -0.3200 hc         1 LL4       0.063700
     43 HAK         -0.6070     1.6620    -1.2540 hc         1 LL4       0.083700
     44 HAD         -5.2780    -2.1180     1.7740 ha         1 LL4       0.147000
     45 HAC         -7.7890    -2.0460     1.1980 ha         1 LL4       0.138000
     46 HAB         -8.3470    -0.3100    -0.7320 h4         1 LL4       0.152000
@<TRIPOS>BOND
     1     1     2 1   
     2     1    24 1   
     3     1    25 1   
     4     1    26 1   
     5     2     3 1   
     6     2     4 1   
     7     2    27 1   
     8     3    28 1   
     9     3    29 1   
    10     3    30 1   
    11     4     5 1   
    12     4    31 1   
    13     4    32 1   
    14     5     6 1   
    15     5    33 1   
    16     5    34 1   
    17     6     7 2   
    18     6     8 1   
    19     8     9 1   
    20     8    11 1   
    21     9    10 1   
    22     9    35 1   
    23     9    36 1   
    24    10    13 1   
    25    10    37 1   
    26    10    38 1   
    27    11    12 1   
    28    11    39 1   
    29    11    40 1   
    30    12    13 1   
    31    12    41 1   
    32    12    42 1   
    33    13    14 1   
    34    13    43 1   
    35    14    15 2   
    36    14    16 1   
    37    15    18 1   
    38    16    17 1   
    39    17    18 2   
    40    18    19 1   
    41    19    20 2   
    42    19    23 1   
    43    20    21 1   
    44    20    44 1   
    45    21    22 2   
    46    21    45 1   
    47    22    23 1   
    48    22    46 1   
@<TRIPOS>SUBSTRUCTURE
     1 LL4         1 TEMP              0 ****  ****    0 ROOT
