@<TRIPOS>MOLECULE
LL5
   45    47     1     0     0
SMALL
No Charge or Current Charge


@<TRIPOS>ATOM
      1 C22         -5.5750    -1.9730    -0.5440 c3         1 LL5      -0.087600
      2 C20         -6.0080    -0.8010     0.3740 c3         1 LL5      -0.052700
      3 C21         -6.7370    -1.3620     1.6230 c3         1 LL5      -0.087600
      4 C19         -4.8450     0.1810     0.7540 c3         1 LL5       0.100500
      5 N33         -5.3920     1.3500     1.5300 n8         1 LL5      -0.989200
      6 C7          -3.9710     0.6050    -0.4990 c          1 LL5       0.566100
      7 O32         -4.2700     1.6170    -1.1260 o          1 LL5      -0.614100
      8 N1          -2.8430    -0.1660    -0.9020 n          1 LL5      -0.406800
      9 C2          -1.9920     0.2360    -2.0550 c6         1 LL5       0.095500
     10 C3          -0.6080     0.7200    -1.5610 c6         1 LL5      -0.095400
     11 C6          -2.2320    -1.2700    -0.1110 c6         1 LL5       0.095500
     12 C5          -0.8600    -0.8320     0.4540 c6         1 LL5      -0.095400
     13 C4           0.0870    -0.3680    -0.6910 c6         1 LL5      -0.098000
     14 C14          1.4050     0.1310    -0.1420 cc         1 LL5       0.494300
     15 N23          2.6020    -0.3620    -0.3730 nd         1 LL5      -0.725000
     16 O26          1.4250     1.2080     0.6930 os         1 LL5      -0.088700
     17 N25          2.7800     1.4170     1.0240 nc         1 LL5      -0.367300
     18 C24          3.4150     0.4610     0.3650 cd         1 LL5       0.643500
     19 C27          4.8370     0.2970     0.4160 cd         1 LL5      -0.296500
     20 C31          5.6670     1.1110     1.1480 cc         1 LL5      -0.081000
     21 C30          7.0280     0.7390     1.0310 cc         1 LL5      -0.142000
     22 C29          7.2380    -0.3480     0.2180 cd         1 LL5      -0.249000
     23 S28          5.7140    -0.9690    -0.4520 ss         1 LL5       0.295000
     24 H22         -4.8340    -2.6110    -0.0480 hc         1 LL5       0.036533
     25 H22A        -6.4390    -2.6000    -0.7960 hc         1 LL5       0.036533
     26 H22B        -5.1530    -1.6110    -1.4890 hc         1 LL5       0.036533
     27 H20         -6.7450    -0.2210    -0.1960 hc         1 LL5       0.063700
     28 H21         -6.0430    -1.9270     2.2580 hc         1 LL5       0.036533
     29 H21A        -7.1770    -0.5590     2.2260 hc         1 LL5       0.036533
     30 H21B        -7.5520    -2.0340     1.3280 hc         1 LL5       0.036533
     31 H19         -4.1850    -0.3420     1.4550 h1         1 LL5       0.063700
     32 HN33        -4.6130     1.9430     1.8410 hn         1 LL5       0.408500
     33 HN3A        -5.8910     1.9640     0.8730 hn         1 LL5       0.408500
     34 H2          -1.8630    -0.6290    -2.7220 h1         1 LL5       0.060700
     35 H2A         -2.4700     1.0280    -2.6480 h1         1 LL5       0.060700
     36 H3           0.0240     0.9760    -2.4240 hc         1 LL5       0.064200
     37 H3A         -0.7370     1.6450    -0.9820 hc         1 LL5       0.064200
     38 H6          -2.8740    -1.6150     0.7060 h1         1 LL5       0.060700
     39 H6A         -2.0880    -2.1370    -0.7730 h1         1 LL5       0.060700
     40 H5          -1.0110    -0.0200     1.1780 hc         1 LL5       0.064200
     41 H5A         -0.4040    -1.6660     1.0070 hc         1 LL5       0.064200
     42 H4           0.2890    -1.2360    -1.3350 hc         1 LL5       0.083700
     43 H31          5.3440     1.9520     1.7580 ha         1 LL5       0.147000
     44 H30          7.8210     1.2760     1.5460 ha         1 LL5       0.138000
     45 H29          8.1760    -0.8280    -0.0350 h4         1 LL5       0.152000
@<TRIPOS>BOND
     1     1     2 1   
     2     1    24 1   
     3     1    25 1   
     4     1    26 1   
     5     2     3 1   
     6     2     4 1   
     7     2    27 1   
     8     3    28 1   
     9     3    29 1   
    10     3    30 1   
    11     4     5 1   
    12     4     6 1   
    13     4    31 1   
    14     5    32 1   
    15     5    33 1   
    16     6     7 2   
    17     6     8 1   
    18     8     9 1   
    19     8    11 1   
    20     9    10 1   
    21     9    34 1   
    22     9    35 1   
    23    10    13 1   
    24    10    36 1   
    25    10    37 1   
    26    11    12 1   
    27    11    38 1   
    28    11    39 1   
    29    12    13 1   
    30    12    40 1   
    31    12    41 1   
    32    13    14 1   
    33    13    42 1   
    34    14    15 2   
    35    14    16 1   
    36    15    18 1   
    37    16    17 1   
    38    17    18 2   
    39    18    19 1   
    40    19    20 2   
    41    19    23 1   
    42    20    21 1   
    43    20    43 1   
    44    21    22 2   
    45    21    44 1   
    46    22    23 1   
    47    22    45 1   
@<TRIPOS>SUBSTRUCTURE
     1 LL5         1 TEMP              0 ****  ****    0 ROOT
