@<TRIPOS>MOLECULE
LL5
   45    47     1     0     0
SMALL
abcg2


@<TRIPOS>ATOM
      1 C22         -5.6260    -1.9770    -0.5820 c3         1 LL5      -0.087600
      2 C20         -5.9980    -0.7840     0.2950 c3         1 LL5      -0.052700
      3 C21         -6.8030    -1.2470     1.5030 c3         1 LL5      -0.087600
      4 C19         -4.7610     0.0150     0.7430 c3         1 LL5       0.100500
      5 N33         -5.1620     1.1760     1.5160 n8         1 LL5      -0.989200
      6 C7          -3.9510     0.4290    -0.4940 c          1 LL5       0.566100
      7 O32         -4.3900     1.3380    -1.1920 o          1 LL5      -0.614100
      8 N1          -2.8000    -0.2050    -0.8010 n          1 LL5      -0.406800
      9 C2          -2.0000     0.2300    -1.9360 c6         1 LL5       0.095500
     10 C3          -0.6590     0.7760    -1.4660 c6         1 LL5      -0.095400
     11 C6          -2.1490    -1.2620    -0.0490 c6         1 LL5       0.095500
     12 C5          -0.8150    -0.7830     0.5080 c6         1 LL5      -0.095400
     13 C4           0.0790    -0.2800    -0.6350 c6         1 LL5      -0.098000
     14 C14          1.3820     0.2180    -0.1290 cc         1 LL5       0.494300
     15 N23          2.5580    -0.2860    -0.3010 nd         1 LL5      -0.725000
     16 O26          1.4130     1.3200     0.6100 os         1 LL5      -0.088700
     17 N25          2.7170     1.5570     0.9500 nc         1 LL5      -0.367300
     18 C24          3.3610     0.5780     0.3860 cd         1 LL5       0.643500
     19 C27          4.7920     0.4050     0.4670 cd         1 LL5      -0.296500
     20 C31          5.7210     1.2100     1.0690 cc         1 LL5      -0.081000
     21 C30          7.0370     0.7070     0.9340 cc         1 LL5      -0.142000
     22 C29          7.0800    -0.4640     0.2360 cd         1 LL5      -0.249000
     23 S28          5.5270    -0.9680    -0.2660 ss         1 LL5       0.295000
     24 H22         -4.9630    -2.6670    -0.0540 hc         1 LL5       0.036533
     25 H22A        -6.5210    -2.5340    -0.8620 hc         1 LL5       0.036533
     26 H22B        -5.1300    -1.6830    -1.5080 hc         1 LL5       0.036533
     27 H20         -6.6230    -0.1070    -0.3010 hc         1 LL5       0.063700
     28 H21         -6.2120    -1.9200     2.1300 hc         1 LL5       0.036533
     29 H21A        -7.1180    -0.4070     2.1200 hc         1 LL5       0.036533
     30 H21B        -7.6960    -1.7890     1.1870 hc         1 LL5       0.036533
     31 H19         -4.1820    -0.6210     1.4150 h1         1 LL5       0.063700
     32 HN33        -4.3470     1.6460     1.8880 hn         1 LL5       0.408500
     33 HN3A        -5.6170     1.8440     0.9040 hn         1 LL5       0.408500
     34 H2          -1.8440    -0.6250    -2.6020 h1         1 LL5       0.060700
     35 H2A         -2.5420     0.9850    -2.4980 h1         1 LL5       0.060700
     36 H3          -0.0620     1.0600    -2.3350 hc         1 LL5       0.064200
     37 H3A         -0.8270     1.6810    -0.8760 hc         1 LL5       0.064200
     38 H6          -2.7780    -1.6280     0.7550 h1         1 LL5       0.060700
     39 H6A         -1.9840    -2.1090    -0.7220 h1         1 LL5       0.060700
     40 H5          -0.9900     0.0130     1.2360 hc         1 LL5       0.064200
     41 H5A         -0.3280    -1.6070     1.0320 hc         1 LL5       0.064200
     42 H4           0.3180    -1.1290    -1.2820 hc         1 LL5       0.083700
     43 H31          5.4710     2.1250     1.5850 ha         1 LL5       0.147000
     44 H30          7.9130     1.1950     1.3350 ha         1 LL5       0.138000
     45 H29          7.9470    -1.0570    -0.0090 h4         1 LL5       0.152000
@<TRIPOS>BOND
     1     1     2 1   
     2     1    24 1   
     3     1    25 1   
     4     1    26 1   
     5     2     3 1   
     6     2     4 1   
     7     2    27 1   
     8     3    28 1   
     9     3    29 1   
    10     3    30 1   
    11     4     5 1   
    12     4     6 1   
    13     4    31 1   
    14     5    32 1   
    15     5    33 1   
    16     6     7 2   
    17     6     8 1   
    18     8     9 1   
    19     8    11 1   
    20     9    10 1   
    21     9    34 1   
    22     9    35 1   
    23    10    13 1   
    24    10    36 1   
    25    10    37 1   
    26    11    12 1   
    27    11    38 1   
    28    11    39 1   
    29    12    13 1   
    30    12    40 1   
    31    12    41 1   
    32    13    14 1   
    33    13    42 1   
    34    14    15 2   
    35    14    16 1   
    36    15    18 1   
    37    16    17 1   
    38    17    18 2   
    39    18    19 1   
    40    19    20 2   
    41    19    23 1   
    42    20    21 1   
    43    20    43 1   
    44    21    22 2   
    45    21    44 1   
    46    22    23 1   
    47    22    45 1   
@<TRIPOS>SUBSTRUCTURE
     1 LL5         1 TEMP              0 ****  ****    0 ROOT
