@<TRIPOS>MOLECULE
LL6
   45    47     1     0     0
SMALL
No Charge or Current Charge


@<TRIPOS>ATOM
      1 C1         -31.7040    98.6040   -11.3730 c3         1 LL6      -0.047300
      2 C2         -30.8140    96.3990   -12.2870 c          1 LL6       0.596100
      3 C3         -29.5020    95.6330   -12.6340 c3         1 LL6       0.030700
      4 C4         -28.8970    96.1310   -13.9730 c3         1 LL6      -0.027100
      5 C5         -28.3990    97.5700   -13.9120 ca         1 LL6      -0.083300
      6 C6         -29.0920    98.5930   -14.5900 ca         1 LL6      -0.087000
      7 C7         -28.6390    99.9220   -14.5180 ca         1 LL6      -0.104000
      8 N1         -29.6380    94.1440   -12.6520 n          1 LL6      -0.405800
      9 C8         -27.4910   100.2350   -13.7720 ca         1 LL6      -0.102000
     10 C10        -27.2470    97.8890   -13.1670 ca         1 LL6      -0.087000
     11 O2         -31.8080   100.8930   -12.0600 o          1 LL6      -0.721000
     12 C19        -31.1960   100.0780   -11.3830 c          1 LL6       0.717000
     13 O3         -30.1740   100.3480   -10.7660 o          1 LL6      -0.721000
     14 C          -32.2740    98.2050    -9.9930 c3         1 LL6      -0.079100
     15 N          -30.6280    97.6820   -11.8050 ns         1 LL6      -0.437900
     16 O          -31.9350    95.9160   -12.4070 o          1 LL6      -0.637100
     17 C18        -28.8160    93.3210   -11.8630 c          1 LL6       0.575600
     18 O1         -27.9710    93.6900   -11.0580 o          1 LL6      -0.555000
     19 C17        -29.1650    91.9300   -12.1990 ca         1 LL6      -0.159600
     20 C16        -28.6410    90.7360   -11.6810 ca         1 LL6      -0.043000
     21 C15        -29.1490    89.5200   -12.1810 ca         1 LL6      -0.133000
     22 C14        -30.1550    89.5210   -13.1740 ca         1 LL6      -0.096000
     23 C13        -30.6620    90.7390   -13.6760 ca         1 LL6      -0.105000
     24 C12        -30.1490    91.9440   -13.1720 ca         1 LL6      -0.075300
     25 C11        -30.5430    93.3620   -13.5620 c5         1 LL6       0.142300
     26 C9         -26.7950    99.2180   -13.0970 ca         1 LL6      -0.104000
     27 H1         -32.5160    98.5410   -12.1090 h1         1 LL6       0.058700
     28 H2         -28.7940    95.8960   -11.8380 h1         1 LL6       0.088700
     29 H3         -29.6390    96.0100   -14.7710 hc         1 LL6       0.046700
     30 H4         -28.0560    95.4790   -14.2420 hc         1 LL6       0.046700
     31 H5         -29.9850    98.3630   -15.1660 ha         1 LL6       0.111000
     32 H6         -29.1800   100.7090   -15.0390 ha         1 LL6       0.102500
     33 H7         -27.1410   101.2630   -13.7160 ha         1 LL6       0.099000
     34 H8         -26.7010    97.1080   -12.6420 ha         1 LL6       0.111000
     35 H10        -32.6950    97.1930   -10.0180 hc         1 LL6       0.022367
     36 H11        -31.4920    98.2340    -9.2240 hc         1 LL6       0.022367
     37 H12        -33.0730    98.8960    -9.6960 hc         1 LL6       0.022367
     38 H13        -29.6730    98.0200   -11.7640 hn         1 LL6       0.301500
     39 H14        -27.8660    90.7480   -10.9180 ha         1 LL6       0.130000
     40 H15        -28.7650    88.5760   -11.8010 ha         1 LL6       0.108000
     41 H16        -30.5410    88.5780   -13.5550 ha         1 LL6       0.105000
     42 H17        -31.4360    90.7430   -14.4410 ha         1 LL6       0.118000
     43 H18        -30.3350    93.5620   -14.6220 h1         1 LL6       0.077200
     44 H19        -31.6050    93.5490   -13.3590 h1         1 LL6       0.077200
     45 H20        -25.9050    99.4590   -12.5200 ha         1 LL6       0.102500
@<TRIPOS>BOND
     1     1    12 1   
     2     1    14 1   
     3     1    15 1   
     4     1    27 1   
     5     2     3 1   
     6     2    15 1   
     7     2    16 2   
     8     3     4 1   
     9     3     8 1   
    10     3    28 1   
    11     4     5 1   
    12     4    29 1   
    13     4    30 1   
    14     5     6 ar  
    15     5    10 ar  
    16     6     7 ar  
    17     6    31 1   
    18     7     9 ar  
    19     7    32 1   
    20     8    17 1   
    21     8    25 1   
    22     9    26 ar  
    23     9    33 1   
    24    10    26 ar  
    25    10    34 1   
    26    11    12 1   
    27    12    13 1   
    28    14    35 1   
    29    14    36 1   
    30    14    37 1   
    31    15    38 1   
    32    17    18 2   
    33    17    19 1   
    34    19    20 ar  
    35    19    24 ar  
    36    20    21 ar  
    37    20    39 1   
    38    21    22 ar  
    39    21    40 1   
    40    22    23 ar  
    41    22    41 1   
    42    23    24 ar  
    43    23    42 1   
    44    24    25 1   
    45    25    43 1   
    46    25    44 1   
    47    26    45 1   
@<TRIPOS>SUBSTRUCTURE
     1 LL6         1 TEMP              0 ****  ****    0 ROOT
