@<TRIPOS>MOLECULE
LL6
   45    47     1     0     0
SMALL
abcg2


@<TRIPOS>ATOM
      1 C1         -31.9740    97.7700   -11.0630 c3         1 LL6      -0.047300
      2 C2         -30.5300    96.6370   -12.6880 c          1 LL6       0.596100
      3 C3         -29.2180    95.8640   -12.8550 c3         1 LL6       0.030700
      4 C4         -28.5140    96.2190   -14.1680 c3         1 LL6      -0.027100
      5 C5         -28.0560    97.6520   -14.1720 ca         1 LL6      -0.083300
      6 C6         -28.7350    98.6300   -14.8930 ca         1 LL6      -0.087000
      7 C7         -28.3140    99.9540   -14.8660 ca         1 LL6      -0.104000
      8 N1         -29.4860    94.4490   -12.7390 n          1 LL6      -0.405800
      9 C8         -27.2070   100.3190   -14.1120 ca         1 LL6      -0.102000
     10 C10        -26.9440    98.0310   -13.4210 ca         1 LL6      -0.087000
     11 O2         -32.8150    99.9740   -11.0930 o          1 LL6      -0.721000
     12 C19        -31.7960    99.2930   -11.3190 c          1 LL6       0.717000
     13 O3         -30.6840    99.6900   -11.7060 o          1 LL6      -0.721000
     14 C          -32.3130    97.4960    -9.6020 c3         1 LL6      -0.079100
     15 N          -30.8110    96.9930   -11.4340 ns         1 LL6      -0.437900
     16 O          -31.2730    96.8300   -13.6420 o          1 LL6      -0.637100
     17 C18        -28.8430    93.6520   -11.8430 c          1 LL6       0.575600
     18 O1         -28.0210    94.0090   -11.0170 o          1 LL6      -0.555000
     19 C17        -29.3430    92.2850   -12.0840 ca         1 LL6      -0.159600
     20 C16        -29.0130    91.1060   -11.4350 ca         1 LL6      -0.043000
     21 C15        -29.6330    89.9410   -11.8600 ca         1 LL6      -0.133000
     22 C14        -30.5560    89.9700   -12.9050 ca         1 LL6      -0.096000
     23 C13        -30.8800    91.1590   -13.5490 ca         1 LL6      -0.105000
     24 C12        -30.2570    92.3200   -13.1230 ca         1 LL6      -0.075300
     25 C11        -30.4020    93.7290   -13.6050 c5         1 LL6       0.142300
     26 C9         -26.5210    99.3510   -13.3890 ca         1 LL6      -0.104000
     27 H1         -32.8090    97.4260   -11.6780 h1         1 LL6       0.058700
     28 H2         -28.5430    96.1060   -12.0320 h1         1 LL6       0.088700
     29 H3         -29.1710    96.0270   -15.0170 hc         1 LL6       0.046700
     30 H4         -27.6520    95.5550   -14.2680 hc         1 LL6       0.046700
     31 H5         -29.6030    98.3540   -15.4780 ha         1 LL6       0.111000
     32 H6         -28.8530   100.7010   -15.4360 ha         1 LL6       0.102500
     33 H7         -26.8790   101.3510   -14.0890 ha         1 LL6       0.099000
     34 H8         -26.4010    97.2810   -12.8560 ha         1 LL6       0.111000
     35 H10        -32.4750    96.4320    -9.4270 hc         1 LL6       0.022367
     36 H11        -31.5110    97.8280    -8.9380 hc         1 LL6       0.022367
     37 H12        -33.2200    98.0260    -9.3190 hc         1 LL6       0.022367
     38 H13        -30.0900    96.8760   -10.7380 hn         1 LL6       0.301500
     39 H14        -28.2960    91.0960   -10.6240 ha         1 LL6       0.130000
     40 H15        -29.4020    88.9990   -11.3790 ha         1 LL6       0.108000
     41 H16        -31.0280    89.0490   -13.2210 ha         1 LL6       0.105000
     42 H17        -31.5980    91.1690   -14.3590 ha         1 LL6       0.118000
     43 H18        -30.1270    93.8350   -14.6580 h1         1 LL6       0.077200
     44 H19        -31.4280    94.0880   -13.4960 h1         1 LL6       0.077200
     45 H20        -25.6550    99.6250   -12.8010 ha         1 LL6       0.102500
@<TRIPOS>BOND
     1     1    12 1   
     2     1    14 1   
     3     1    15 1   
     4     1    27 1   
     5     2     3 1   
     6     2    15 1   
     7     2    16 2   
     8     3     4 1   
     9     3     8 1   
    10     3    28 1   
    11     4     5 1   
    12     4    29 1   
    13     4    30 1   
    14     5     6 ar  
    15     5    10 ar  
    16     6     7 ar  
    17     6    31 1   
    18     7     9 ar  
    19     7    32 1   
    20     8    17 1   
    21     8    25 1   
    22     9    26 ar  
    23     9    33 1   
    24    10    26 ar  
    25    10    34 1   
    26    11    12 1   
    27    12    13 1   
    28    14    35 1   
    29    14    36 1   
    30    14    37 1   
    31    15    38 1   
    32    17    18 2   
    33    17    19 1   
    34    19    20 ar  
    35    19    24 ar  
    36    20    21 ar  
    37    20    39 1   
    38    21    22 ar  
    39    21    40 1   
    40    22    23 ar  
    41    22    41 1   
    42    23    24 ar  
    43    23    42 1   
    44    24    25 1   
    45    25    43 1   
    46    25    44 1   
    47    26    45 1   
@<TRIPOS>SUBSTRUCTURE
     1 LL6         1 TEMP              0 ****  ****    0 ROOT
