@<TRIPOS>MOLECULE
LL8
   32    33     1     0     0
SMALL
No Charge or Current Charge


@<TRIPOS>ATOM
      1 C1           1.9050     1.4400    -0.3440 ca         1 LL8      -0.046000
      2 O1          -2.9950     0.4640    -1.7120 o          1 LL8      -0.514100
      3 C2           3.2730     1.2810    -0.0580 ca         1 LL8      -0.186000
      4 O2          -3.7440    -0.3710     1.9120 o          1 LL8      -0.492100
      5 C3           3.7920    -0.0000     0.2290 ca         1 LL8       0.159100
      6 O3           5.1240    -0.2160     0.5160 os         1 LL8      -0.339100
      7 C4           2.9340    -1.1120     0.2260 ca         1 LL8      -0.165000
      8 C5           1.5660    -0.9560    -0.0580 ca         1 LL8       0.025000
      9 C6           1.0480     0.3230    -0.3450 ca         1 LL8      -0.092000
     10 C7          -0.3220     0.4780    -0.6300 ca         1 LL8      -0.011000
     11 C8          -1.1910    -0.6360    -0.6250 ca         1 LL8      -0.186600
     12 C9          -0.6570    -1.9160    -0.3480 ca         1 LL8      -0.069000
     13 C10          0.7110    -2.0710    -0.0640 ca         1 LL8      -0.120000
     14 C11         -2.6550    -0.4220    -0.9390 c          1 LL8       0.601700
     15 C12         -3.7190    -1.2950    -0.2940 c3         1 LL8      -0.293400
     16 C13         -4.3140    -0.4780     0.8360 c          1 LL8       0.587100
     17 C14         -5.6600     0.1940     0.5720 c3         1 LL8      -0.204100
     18 C31          6.0860     0.8550     0.5440 c3         1 LL8       0.149900
     19 H1           1.5140     2.4310    -0.5640 ha         1 LL8       0.118000
     20 H2           3.9100     2.1600    -0.0640 ha         1 LL8       0.119000
     21 H4           3.3380    -2.0960     0.4460 ha         1 LL8       0.130000
     22 H7          -0.7130     1.4700    -0.8490 ha         1 LL8       0.135000
     23 H9          -1.2820    -2.8050    -0.3700 ha         1 LL8       0.109000
     24 H10          1.1050    -3.0630     0.1450 ha         1 LL8       0.117000
     25 H12         -4.4940    -1.5030    -1.0400 hc         1 LL8       0.078200
     26 H12A        -3.2850    -2.1960     0.1450 hc         1 LL8       0.078200
     27 H14         -6.0110     0.7860     1.4250 hc         1 LL8       0.061033
     28 H14A        -5.5900     0.7940    -0.3410 hc         1 LL8       0.061033
     29 H14B        -6.3900    -0.5740     0.2900 hc         1 LL8       0.061033
     30 H31          7.0810     0.4650     0.7920 h1         1 LL8       0.043033
     31 H31A         6.1480     1.3490    -0.4340 h1         1 LL8       0.043033
     32 H31B         5.8160     1.6020     1.3010 h1         1 LL8       0.043033
@<TRIPOS>BOND
     1     1     3 ar  
     2     1     9 ar  
     3     1    19 1   
     4     2    14 2   
     5     3     5 ar  
     6     3    20 1   
     7     4    16 2   
     8     5     6 1   
     9     5     7 ar  
    10     6    18 1   
    11     7     8 ar  
    12     7    21 1   
    13     8     9 ar  
    14     8    13 ar  
    15     9    10 ar  
    16    10    11 ar  
    17    10    22 1   
    18    11    12 ar  
    19    11    14 1   
    20    12    13 ar  
    21    12    23 1   
    22    13    24 1   
    23    14    15 1   
    24    15    16 1   
    25    15    25 1   
    26    15    26 1   
    27    16    17 1   
    28    17    27 1   
    29    17    28 1   
    30    17    29 1   
    31    18    30 1   
    32    18    31 1   
    33    18    32 1   
@<TRIPOS>SUBSTRUCTURE
     1 LL8         1 TEMP              0 ****  ****    0 ROOT
