@<TRIPOS>MOLECULE
LL8
   32    33     1     0     0
SMALL
bcc


@<TRIPOS>ATOM
      1 C1           2.2480     1.5270    -0.1430 ca         1 LL8      -0.064000
      2 O1          -2.7790     1.5220    -0.7780 o          1 LL8      -0.514100
      3 C2           3.5580     1.1770    -0.0270 ca         1 LL8      -0.204000
      4 O2          -4.7340     0.7460     1.2670 o          1 LL8      -0.492100
      5 C3           3.9200    -0.1850     0.1210 ca         1 LL8       0.159100
      6 O3           5.1850    -0.6050     0.2040 os         1 LL8      -0.315900
      7 C4           2.9380    -1.1520     0.1750 ca         1 LL8      -0.183000
      8 C5           1.5830    -0.8050     0.0480 ca         1 LL8       0.025000
      9 C6           1.2220     0.5570    -0.1210 ca         1 LL8      -0.092000
     10 C7          -0.1310     0.9010    -0.2760 ca         1 LL8      -0.029000
     11 C8          -1.1210    -0.0550    -0.2600 ca         1 LL8      -0.186600
     12 C9          -0.7500    -1.4160    -0.0880 ca         1 LL8      -0.087000
     13 C10          0.5570    -1.7760     0.0500 ca         1 LL8      -0.138000
     14 C11         -2.5170     0.3760    -0.4730 c          1 LL8       0.601700
     15 C12         -3.6530    -0.6230    -0.3550 c3         1 LL8      -0.293400
     16 C13         -4.8200    -0.1650     0.4960 c          1 LL8       0.587100
     17 C14         -6.0750    -0.9780     0.3250 c3         1 LL8      -0.204100
     18 C31          6.2290     0.3480     0.2480 c3         1 LL8       0.126700
     19 H1           1.9890     2.5690    -0.2770 ha         1 LL8       0.136000
     20 H2           4.3080     1.9530    -0.0650 ha         1 LL8       0.137000
     21 H4           3.2200    -2.1940     0.2890 ha         1 LL8       0.148000
     22 H7          -0.3880     1.9440    -0.4160 ha         1 LL8       0.153000
     23 H9          -1.4970    -2.1960    -0.0900 ha         1 LL8       0.127000
     24 H10          0.8200    -2.8190     0.1720 ha         1 LL8       0.135000
     25 H12         -4.0150    -0.8430    -1.3650 hc         1 LL8       0.078200
     26 H12A        -3.3600    -1.5890     0.0600 hc         1 LL8       0.078200
     27 H14         -6.8580    -0.6600     1.0090 hc         1 LL8       0.061033
     28 H14A        -6.4390    -0.8930    -0.7040 hc         1 LL8       0.061033
     29 H14B        -5.8640    -2.0360     0.4890 hc         1 LL8       0.061033
     30 H31          7.1460    -0.2120     0.3810 h1         1 LL8       0.043033
     31 H31A         6.2980     0.9190    -0.6810 h1         1 LL8       0.043033
     32 H31B         6.1100     1.0420     1.0850 h1         1 LL8       0.043033
@<TRIPOS>BOND
     1     1     3 ar  
     2     1     9 ar  
     3     1    19 1   
     4     2    14 2   
     5     3     5 ar  
     6     3    20 1   
     7     4    16 2   
     8     5     6 1   
     9     5     7 ar  
    10     6    18 1   
    11     7     8 ar  
    12     7    21 1   
    13     8     9 ar  
    14     8    13 ar  
    15     9    10 ar  
    16    10    11 ar  
    17    10    22 1   
    18    11    12 ar  
    19    11    14 1   
    20    12    13 ar  
    21    12    23 1   
    22    13    24 1   
    23    14    15 1   
    24    15    16 1   
    25    15    25 1   
    26    15    26 1   
    27    16    17 1   
    28    17    27 1   
    29    17    28 1   
    30    17    29 1   
    31    18    30 1   
    32    18    31 1   
    33    18    32 1   
@<TRIPOS>SUBSTRUCTURE
     1 LL8         1 TEMP              0 ****  ****    0 ROOT
