@<TRIPOS>MOLECULE
LL9
   30    30     1     0     0
SMALL
abcg2


@<TRIPOS>ATOM
      1 OAD          5.1640    -1.3370    -0.8200 o          1 LL9      -0.697533
      2 SAQ          5.0280    -0.2580     0.1800 s6         1 LL9       1.323600
      3 OAB          5.7690    -0.5270     1.4280 o          1 LL9      -0.697533
      4 OAC          5.3020     1.0810    -0.3780 o          1 LL9      -0.697533
      5 CAJ          3.2890    -0.2520     0.6500 c3         1 LL9      -0.359400
      6 CAI          2.3650     0.0300    -0.5220 c3         1 LL9       0.193800
      7 NAL          0.9800    -0.1130    -0.1150 n7         1 LL9      -0.864400
      8 CAK          0.0530     0.1400    -1.2020 c3         1 LL9       0.205100
      9 CAN         -1.3660    -0.1130    -0.7720 ca         1 LL9      -0.099300
     10 CAH         -2.3350     0.8780    -0.8810 ca         1 LL9      -0.072000
     11 CAO         -3.6400     0.6330    -0.4900 ca         1 LL9       0.076000
     12 CL          -4.8280     1.8850    -0.6330 cl         1 LL9      -0.209000
     13 CAP         -4.0250    -0.6050     0.0270 ca         1 LL9       0.134100
     14 OAM         -5.3110    -0.7500     0.3770 os         1 LL9      -0.332100
     15 CAA         -5.7350    -2.0080     0.8700 c3         1 LL9       0.150900
     16 CAG         -3.0490    -1.5940     0.1430 ca         1 LL9      -0.198000
     17 CAF         -1.7430    -1.3430    -0.2470 ca         1 LL9      -0.043000
     18 H1           3.0660    -1.2300     1.0810 h1         1 LL9       0.069700
     19 H2           3.1670     0.4990     1.4340 h1         1 LL9       0.069700
     20 H3           2.5890     1.0230    -0.9350 h1         1 LL9       0.041700
     21 H4           2.5590    -0.6950    -1.3170 h1         1 LL9       0.041700
     22 H5           0.7830     0.5380     0.6370 hn         1 LL9       0.402000
     23 H7           0.1350     1.1570    -1.6120 h1         1 LL9       0.034200
     24 H8           0.3110    -0.5380    -2.0220 h1         1 LL9       0.034200
     25 H9          -2.0720     1.8520    -1.2740 ha         1 LL9       0.126000
     26 H10         -6.7990    -1.9150     1.0700 h1         1 LL9       0.038700
     27 H11         -5.5800    -2.8030     0.1380 h1         1 LL9       0.038700
     28 H12         -5.2230    -2.2750     1.7980 h1         1 LL9       0.038700
     29 H13         -3.3000    -2.5690     0.5380 ha         1 LL9       0.114000
     30 H14         -1.0050    -2.1280    -0.1410 ha         1 LL9       0.137000
@<TRIPOS>BOND
     1     1     2 1   
     2     2     3 1   
     3     2     4 1   
     4     2     5 1   
     5     5     6 1   
     6     5    18 1   
     7     5    19 1   
     8     6     7 1   
     9     6    20 1   
    10     6    21 1   
    11     7     8 1   
    12     7    22 1   
    13     8     9 1   
    14     8    23 1   
    15     8    24 1   
    16     9    10 ar  
    17     9    17 ar  
    18    10    11 ar  
    19    10    25 1   
    20    11    12 1   
    21    11    13 ar  
    22    13    14 1   
    23    13    16 ar  
    24    14    15 1   
    25    15    26 1   
    26    15    27 1   
    27    15    28 1   
    28    16    17 ar  
    29    16    29 1   
    30    17    30 1   
@<TRIPOS>SUBSTRUCTURE
     1 LL9         1 TEMP              0 ****  ****    0 ROOT
