@<TRIPOS>MOLECULE
LL9
   30    30     1     0     0
SMALL
No Charge or Current Charge


@<TRIPOS>ATOM
      1 OAD          5.3500    -1.0940    -0.5560 o          1 LL9      -0.697533
      2 SAQ          5.0490     0.0550     0.3100 s6         1 LL9       1.323600
      3 OAB          5.6700    -0.0090     1.6420 o          1 LL9      -0.697533
      4 OAC          5.1580     1.3640    -0.3490 o          1 LL9      -0.697533
      5 CAJ          3.2900    -0.1110     0.6600 c3         1 LL9      -0.359400
      6 CAI          2.4550    -0.0670    -0.6170 c3         1 LL9       0.193800
      7 NAL          1.0450    -0.2210    -0.2370 n7         1 LL9      -0.864400
      8 CAK          0.0870    -0.1710    -1.3530 c3         1 LL9       0.205100
      9 CAN         -1.3380    -0.3060    -0.8360 ca         1 LL9      -0.099300
     10 CAH         -2.1400     0.8360    -0.6490 ca         1 LL9      -0.072000
     11 CAO         -3.4570     0.7100    -0.1740 ca         1 LL9       0.076000
     12 Cl          -4.4270     2.1680     0.0450 cl         1 LL9      -0.209000
     13 CAP         -3.9900    -0.5640     0.1200 ca         1 LL9       0.134100
     14 OAM         -5.2910    -0.6510     0.5860 os         1 LL9      -0.332100
     15 CAA         -5.9110    -1.9080     0.9100 c3         1 LL9       0.150900
     16 CAG         -3.1830    -1.7100    -0.0670 ca         1 LL9      -0.198000
     17 CAF         -1.8660    -1.5770    -0.5410 ca         1 LL9      -0.043000
     18 H1           3.1620    -1.0670     1.1760 h1         1 LL9       0.069700
     19 H2           3.0260     0.7130     1.3300 h1         1 LL9       0.069700
     20 H3           2.6130     0.8900    -1.1350 h1         1 LL9       0.041700
     21 H4           2.7610    -0.8780    -1.2950 h1         1 LL9       0.041700
     22 H5           0.8100     0.5370     0.4120 hn         1 LL9       0.402000
     23 H7           0.1850     0.7780    -1.9000 h1         1 LL9       0.034200
     24 H8           0.2880    -0.9810    -2.0680 h1         1 LL9       0.034200
     25 H9          -1.7440     1.8240    -0.8710 ha         1 LL9       0.126000
     26 H10         -6.9390    -1.7450     1.2580 h1         1 LL9       0.038700
     27 H11         -5.9500    -2.5620     0.0300 h1         1 LL9       0.038700
     28 H12         -5.3590    -2.4200     1.7080 h1         1 LL9       0.038700
     29 H13         -3.5560    -2.7060     0.1500 ha         1 LL9       0.114000
     30 H14         -1.2500    -2.4640    -0.6790 ha         1 LL9       0.137000
@<TRIPOS>BOND
     1     1     2 1   
     2     2     3 1   
     3     2     4 1   
     4     2     5 1   
     5     5     6 1   
     6     5    18 1   
     7     5    19 1   
     8     6     7 1   
     9     6    20 1   
    10     6    21 1   
    11     7     8 1   
    12     7    22 1   
    13     8     9 1   
    14     8    23 1   
    15     8    24 1   
    16     9    10 ar  
    17     9    17 ar  
    18    10    11 ar  
    19    10    25 1   
    20    11    12 1   
    21    11    13 ar  
    22    13    14 1   
    23    13    16 ar  
    24    14    15 1   
    25    15    26 1   
    26    15    27 1   
    27    15    28 1   
    28    16    17 ar  
    29    16    29 1   
    30    17    30 1   
@<TRIPOS>SUBSTRUCTURE
     1 LL9         1 TEMP              0 ****  ****    0 ROOT
