@<TRIPOS>MOLECULE
LLA
   21    21     1     0     0
SMALL
No Charge or Current Charge


@<TRIPOS>ATOM
      1 O            0.6850    -0.1290     3.5820 o          1 LLA      -0.720500
      2 CA           0.0270     0.4340     1.3440 c3         1 LLA       0.024300
      3 CB          -0.1930    -0.7730     0.3950 c3         1 LLA      -0.043100
      4 CG          -0.1190    -0.4050    -1.0850 ca         1 LLA      -0.032300
      5 CD1          0.9700    -0.8260    -1.8750 ca         1 LLA      -0.107000
      6 CD2         -1.1520     0.3470    -1.6800 ca         1 LLA      -0.107000
      7 CE1          1.0280    -0.4940    -3.2400 ca         1 LLA      -0.122000
      8 CE2         -1.0940     0.6780    -3.0450 ca         1 LLA      -0.122000
      9 CZ          -0.0040     0.2580    -3.8250 ca         1 LLA      -0.140000
     10 C           -0.2730     0.0360     2.8360 c          1 LLA       0.691000
     11 OA           1.3780     0.9450     1.1840 oh         1 LLA      -0.706000
     12 OXT         -1.4350     0.0190     3.2180 o          1 LLA      -0.720500
     13 HA          -0.6950     1.2170     1.0750 h1         1 LLA       0.030700
     14 H1B          0.5350    -1.5570     0.6360 hc         1 LLA       0.051700
     15 H2B         -1.1780    -1.2070     0.6040 hc         1 LLA       0.051700
     16 HD1          1.7740    -1.4080    -1.4300 ha         1 LLA       0.112500
     17 HD2         -2.0000     0.6740    -1.0840 ha         1 LLA       0.112500
     18 HE1          1.8720    -0.8210    -3.8430 ha         1 LLA       0.092500
     19 HE2         -1.8940     1.2600    -3.4980 ha         1 LLA       0.092500
     20 HZ           0.0400     0.5140    -4.8810 ha         1 LLA       0.090000
     21 HOA          1.8330     0.7170     2.0310 ho         1 LLA       0.471000
@<TRIPOS>BOND
     1     1    10 1   
     2     2     3 1   
     3     2    10 1   
     4     2    11 1   
     5     2    13 1   
     6     3     4 1   
     7     3    14 1   
     8     3    15 1   
     9     4     5 ar  
    10     4     6 ar  
    11     5     7 ar  
    12     5    16 1   
    13     6     8 ar  
    14     6    17 1   
    15     7     9 ar  
    16     7    18 1   
    17     8     9 ar  
    18     8    19 1   
    19     9    20 1   
    20    10    12 1   
    21    11    21 1   
@<TRIPOS>SUBSTRUCTURE
     1 LLA         1 TEMP              0 ****  ****    0 ROOT
