@<TRIPOS>MOLECULE
LLA
   21    21     1     0     0
SMALL
bcc


@<TRIPOS>ATOM
      1 O            0.9330     0.0730     3.4760 o          1 LLA      -0.825800
      2 CA           0.0940     0.4140     1.2940 c3         1 LLA       0.001100
      3 CB          -0.3730    -0.7360     0.3940 c3         1 LLA      -0.043100
      4 CG          -0.2270    -0.4080    -1.0630 ca         1 LLA      -0.032300
      5 CD1          0.9350    -0.7260    -1.7640 ca         1 LLA      -0.125000
      6 CD2         -1.2440     0.2630    -1.7410 ca         1 LLA      -0.125000
      7 CE1          1.0740    -0.3910    -3.1050 ca         1 LLA      -0.140000
      8 CE2         -1.1090     0.6050    -3.0800 ca         1 LLA      -0.140000
      9 CZ           0.0530     0.2790    -3.7680 ca         1 LLA      -0.158000
     10 C           -0.1110     0.0530     2.7840 c          1 LLA       0.901600
     11 OA           1.4430     0.7260     1.0650 oh         1 LLA      -0.643800
     12 OXT         -1.2610    -0.2210     3.1580 o          1 LLA      -0.825800
     13 HA          -0.5350     1.2890     1.0710 h1         1 LLA       0.030700
     14 H1B          0.1980    -1.6370     0.6380 hc         1 LLA       0.051700
     15 H2B         -1.4190    -0.9470     0.6240 hc         1 LLA       0.051700
     16 HD1          1.7370    -1.2480    -1.2570 ha         1 LLA       0.130500
     17 HD2         -2.1560     0.5180    -1.2140 ha         1 LLA       0.130500
     18 HE1          1.9820    -0.6520    -3.6330 ha         1 LLA       0.110500
     19 HE2         -1.9140     1.1220    -3.5870 ha         1 LLA       0.110500
     20 HZ           0.1610     0.5410    -4.8130 ha         1 LLA       0.108000
     21 HOA          1.8420     0.5590     1.9400 ho         1 LLA       0.432000
@<TRIPOS>BOND
     1     1    10 1   
     2     2     3 1   
     3     2    10 1   
     4     2    11 1   
     5     2    13 1   
     6     3     4 1   
     7     3    14 1   
     8     3    15 1   
     9     4     5 ar  
    10     4     6 ar  
    11     5     7 ar  
    12     5    16 1   
    13     6     8 ar  
    14     6    17 1   
    15     7     9 ar  
    16     7    18 1   
    17     8     9 ar  
    18     8    19 1   
    19     9    20 1   
    20    10    12 1   
    21    11    21 1   
@<TRIPOS>SUBSTRUCTURE
     1 LLA         1 TEMP              0 ****  ****    0 ROOT
