@<TRIPOS>MOLECULE
LLB
   64    68     1     0     0
SMALL
No Charge or Current Charge


@<TRIPOS>ATOM
      1 C4          -4.1150    -2.3590     0.3390 ca         1 LLB      -0.083800
      2 C5          -4.2170    -3.5480     1.0920 ca         1 LLB      -0.019000
      3 C6          -5.2900    -4.4300     0.8500 ca         1 LLB      -0.203000
      4 C7           9.7120    -0.9440     0.8400 c3         1 LLB      -0.085100
      5 C20          1.8520     0.3930     0.3290 ca         1 LLB       0.178100
      6 C21          1.4750     0.2950     1.6750 ca         1 LLB      -0.195500
      7 C22          0.2390    -0.2700     2.0320 ca         1 LLB      -0.017000
      8 C28          3.5550     1.1090    -1.3100 c3         1 LLB       0.164600
      9 O17         -2.0800    -1.8920     2.5340 o          1 LLB      -0.531100
     10 C12         -3.0800    -1.3300     0.4400 cc         1 LLB      -0.138400
     11 C11         -3.3550    -0.2650    -0.4300 cd         1 LLB       0.045400
     12 C14         -2.8620     1.1330    -0.3530 ca         1 LLB      -0.082800
     13 C54         -2.8380     1.9290    -1.5210 ca         1 LLB      -0.048000
     14 C53         -2.3760     3.2560    -1.4800 ca         1 LLB      -0.177500
     15 C52         -1.9460     3.8130    -0.2680 ca         1 LLB       0.150100
     16 O59         -1.4990     5.0990    -0.2200 oh         1 LLB      -0.529100
     17 C51         -1.9880     3.0480     0.9030 ca         1 LLB      -0.177500
     18 C50         -2.4490     1.7210     0.8660 ca         1 LLB      -0.048000
     19 S10         -4.7330    -0.5930    -1.5270 ss         1 LLB       0.072400
     20 C3          -5.0530    -2.0850    -0.6390 ca         1 LLB      -0.131000
     21 C2          -6.1260    -2.9530    -0.8970 ca         1 LLB      -0.128000
     22 C1          -6.2440    -4.1300    -0.1400 ca         1 LLB       0.149100
     23 O13         -7.2780    -4.9860    -0.3750 oh         1 LLB      -0.533100
     24 C16         -0.6470    -0.7360     1.0380 ca         1 LLB      -0.215600
     25 C19          0.9840    -0.0930    -0.6700 ca         1 LLB      -0.195500
     26 C18         -0.2530    -0.6590    -0.3180 ca         1 LLB      -0.017000
     27 C29          4.9560     1.7800    -1.2810 c3         1 LLB       0.170800
     28 N61          6.0280     1.0610    -0.5310 n3         1 LLB      -0.708600
     29 C66          6.3260    -0.2970    -1.0730 c6         1 LLB       0.170300
     30 C65          7.3680    -1.0460    -0.2070 c6         1 LLB      -0.072400
     31 C64          8.6740    -0.2240    -0.0610 c6         1 LLB      -0.062700
     32 C63          8.3330     1.1910     0.4700 c6         1 LLB      -0.072400
     33 C62          7.2670     1.8790    -0.4180 c6         1 LLB       0.170300
     34 H5          -3.4840    -3.8030     1.8520 ha         1 LLB       0.133000
     35 H6          -5.3690    -5.3440     1.4330 ha         1 LLB       0.116000
     36 H72         10.6420    -0.3670     0.9110 hc         1 LLB       0.033367
     37 H73          9.3280    -1.0870     1.8580 hc         1 LLB       0.033367
     38 H21          2.1440     0.6620     2.4480 ha         1 LLB       0.125000
     39 H22         -0.0340    -0.3290     3.0840 ha         1 LLB       0.125500
     40 H281         3.6190     0.1350    -1.8110 h1         1 LLB       0.036200
     41 H282         2.8730     1.7440    -1.8880 h1         1 LLB       0.036200
     42 H54         -3.1520     1.5150    -2.4760 ha         1 LLB       0.121500
     43 H53         -2.3540     3.8430    -2.3960 ha         1 LLB       0.123500
     44 HO59        -1.5460     5.4780    -1.1230 ho         1 LLB       0.465000
     45 H51         -1.6720     3.4850     1.8470 ha         1 LLB       0.123500
     46 H50         -2.5100     1.1710     1.8000 ha         1 LLB       0.121500
     47 H2          -6.8520    -2.7220    -1.6720 ha         1 LLB       0.137000
     48 HO13        -7.1950    -5.7450     0.2400 ho         1 LLB       0.467000
     49 H19          1.2510    -0.0440    -1.7220 ha         1 LLB       0.125000
     50 H18         -0.8930    -1.0440    -1.1080 ha         1 LLB       0.125500
     51 H291         5.2760     1.9280    -2.3220 h1         1 LLB       0.040700
     52 H292         4.8240     2.7820    -0.8520 h1         1 LLB       0.040700
     53 H661         5.4140    -0.9100    -1.1090 h1         1 LLB       0.027700
     54 H662         6.7050    -0.2190    -2.1030 h1         1 LLB       0.027700
     55 H651         6.9380    -1.2470     0.7840 hc         1 LLB       0.048200
     56 H652         7.5850    -2.0230    -0.6580 hc         1 LLB       0.048200
     57 H64          9.1380    -0.1240    -1.0520 hc         1 LLB       0.040700
     58 H631         7.9600     1.1270     1.5010 hc         1 LLB       0.048200
     59 H632         9.2390     1.8110     0.5020 hc         1 LLB       0.048200
     60 H621         7.6950     2.0580    -1.4160 h1         1 LLB       0.027700
     61 H622         7.0350     2.8630     0.0150 h1         1 LLB       0.027700
     62 C15         -1.9790    -1.3310     1.4490 c          1 LLB       0.615900
     63 O27          3.0760     0.9600     0.0420 os         1 LLB      -0.322100
     64 H71          9.9670    -1.9320     0.4370 hc         1 LLB       0.033367
@<TRIPOS>BOND
     1     1     2 ar  
     2     1    10 1   
     3     1    20 ar  
     4     2     3 ar  
     5     2    34 1   
     6     3    22 ar  
     7     3    35 1   
     8     4    31 1   
     9     4    36 1   
    10     4    37 1   
    11     4    64 1   
    12     5     6 ar  
    13     5    25 ar  
    14     5    63 1   
    15     6     7 ar  
    16     6    38 1   
    17     7    24 ar  
    18     7    39 1   
    19     8    27 1   
    20     8    40 1   
    21     8    41 1   
    22     8    63 1   
    23     9    62 2   
    24    10    11 2   
    25    10    62 1   
    26    11    12 1   
    27    11    19 1   
    28    12    13 ar  
    29    12    18 ar  
    30    13    14 ar  
    31    13    42 1   
    32    14    15 ar  
    33    14    43 1   
    34    15    16 1   
    35    15    17 ar  
    36    16    44 1   
    37    17    18 ar  
    38    17    45 1   
    39    18    46 1   
    40    19    20 1   
    41    20    21 ar  
    42    21    22 ar  
    43    21    47 1   
    44    22    23 1   
    45    23    48 1   
    46    24    26 ar  
    47    24    62 1   
    48    25    26 ar  
    49    25    49 1   
    50    26    50 1   
    51    27    28 1   
    52    27    51 1   
    53    27    52 1   
    54    28    29 1   
    55    28    33 1   
    56    29    30 1   
    57    29    53 1   
    58    29    54 1   
    59    30    31 1   
    60    30    55 1   
    61    30    56 1   
    62    31    32 1   
    63    31    57 1   
    64    32    33 1   
    65    32    58 1   
    66    32    59 1   
    67    33    60 1   
    68    33    61 1   
@<TRIPOS>SUBSTRUCTURE
     1 LLB         1 TEMP              0 ****  ****    0 ROOT
