@<TRIPOS>MOLECULE
LLB
   64    68     1     0     0
SMALL
bcc


@<TRIPOS>ATOM
      1 C4          -3.8880    -2.2770     0.4590 ca         1 LLB      -0.083800
      2 C5          -3.7870    -3.5300     1.0740 ca         1 LLB      -0.037000
      3 C6          -4.6580    -4.5410     0.7300 ca         1 LLB      -0.221000
      4 C7           9.3480    -1.2300     0.7590 c3         1 LLB      -0.085100
      5 C20          1.8540     0.5160     0.4010 ca         1 LLB       0.178100
      6 C21          1.5180     0.3860     1.7550 ca         1 LLB      -0.213500
      7 C22          0.2920    -0.1210     2.1170 ca         1 LLB      -0.035000
      8 C28          3.4770     1.1740    -1.2090 c3         1 LLB       0.141400
      9 O17         -2.1070    -1.4790     2.7080 o          1 LLB      -0.531100
     10 C12         -3.0750    -1.0950     0.6160 cc         1 LLB      -0.138400
     11 C11         -3.4830    -0.0640    -0.1790 cd         1 LLB       0.045400
     12 C14         -2.9640     1.2990    -0.2750 ca         1 LLB      -0.082800
     13 C54         -2.7770     1.9050    -1.5170 ca         1 LLB      -0.066000
     14 C53         -2.2480     3.1790    -1.6190 ca         1 LLB      -0.195500
     15 C52         -1.8930     3.8800    -0.4680 ca         1 LLB       0.150100
     16 O59         -1.3690     5.1180    -0.5040 oh         1 LLB      -0.490100
     17 C51         -2.0910     3.2930     0.7810 ca         1 LLB      -0.195500
     18 C50         -2.6220     2.0220     0.8690 ca         1 LLB      -0.066000
     19 S10         -4.8590    -0.4970    -1.1550 ss         1 LLB      -0.054500
     20 C3          -4.8910    -2.1020    -0.5080 ca         1 LLB      -0.004100
     21 C2          -5.7770    -3.1100    -0.8680 ca         1 LLB      -0.146000
     22 C1          -5.6550    -4.3380    -0.2380 ca         1 LLB       0.149100
     23 O13         -6.5170    -5.3120    -0.5890 oh         1 LLB      -0.494100
     24 C16         -0.6450    -0.5010     1.1490 ca         1 LLB      -0.215600
     25 C19          0.9370     0.1220    -0.5740 ca         1 LLB      -0.213500
     26 C18         -0.2970    -0.3760    -0.1920 ca         1 LLB      -0.035000
     27 C29          4.8690     1.7660    -1.2150 c3         1 LLB       0.170800
     28 N61          5.8560     0.9640    -0.5250 n3         1 LLB      -0.708600
     29 C66          6.1430    -0.2880    -1.2040 c6         1 LLB       0.170300
     30 C65          7.1080    -1.1440    -0.3990 c6         1 LLB      -0.072400
     31 C64          8.4080    -0.4030    -0.1060 c6         1 LLB      -0.062700
     32 C63          8.0720     0.9390     0.5380 c6         1 LLB      -0.072400
     33 C62          7.0740     1.7230    -0.2970 c6         1 LLB       0.170300
     34 H5          -3.0310    -3.7170     1.8240 ha         1 LLB       0.151000
     35 H6          -4.5710    -5.5070     1.2150 ha         1 LLB       0.134000
     36 H72         10.2790    -0.6970     0.9590 hc         1 LLB       0.033367
     37 H73          8.8850    -1.4620     1.7210 hc         1 LLB       0.033367
     38 H21          2.2320     0.6900     2.5100 ha         1 LLB       0.143000
     39 H22          0.0480    -0.2100     3.1680 ha         1 LLB       0.143500
     40 H281         3.4480     0.2110    -1.7280 h1         1 LLB       0.036200
     41 H282         2.8040     1.8520    -1.7440 h1         1 LLB       0.036200
     42 H54         -3.0220     1.3700    -2.4260 ha         1 LLB       0.139500
     43 H53         -2.1010     3.6230    -2.5970 ha         1 LLB       0.141500
     44 HO59        -1.2800     5.4210    -1.4140 ho         1 LLB       0.426000
     45 H51         -1.8360     3.8400     1.6800 ha         1 LLB       0.141500
     46 H50         -2.7920     1.5950     1.8490 ha         1 LLB       0.139500
     47 H2          -6.5400    -2.9500    -1.6190 ha         1 LLB       0.155000
     48 HO13        -6.3440    -6.1140    -0.0830 ho         1 LLB       0.428000
     49 H19          1.1630     0.2010    -1.6280 ha         1 LLB       0.143000
     50 H18         -0.9890    -0.6830    -0.9650 ha         1 LLB       0.143500
     51 H291         5.1380     1.9500    -2.2700 h1         1 LLB       0.040700
     52 H292         4.8280     2.7480    -0.7360 h1         1 LLB       0.040700
     53 H661         5.2160    -0.8430    -1.3530 h1         1 LLB       0.027700
     54 H662         6.5650    -0.1070    -2.2110 h1         1 LLB       0.027700
     55 H651         6.6320    -1.4290     0.5460 hc         1 LLB       0.048200
     56 H652         7.3090    -2.0700    -0.9440 hc         1 LLB       0.048200
     57 H64          8.9040    -0.2010    -1.0640 hc         1 LLB       0.040700
     58 H631         7.6520     0.7670     1.5360 hc         1 LLB       0.048200
     59 H632         8.9770     1.5360     0.6720 hc         1 LLB       0.048200
     60 H621         7.5500     2.0160    -1.2510 h1         1 LLB       0.027700
     61 H622         6.8110     2.6520     0.2160 h1         1 LLB       0.027700
     62 C15         -1.9460    -1.0440     1.5800 c          1 LLB       0.615900
     63 O27          3.0640     1.0210     0.1410 os         1 LLB      -0.298900
     64 H71          9.6020    -2.1760     0.2780 hc         1 LLB       0.033367
@<TRIPOS>BOND
     1     1     2 ar  
     2     1    10 1   
     3     1    20 ar  
     4     2     3 ar  
     5     2    34 1   
     6     3    22 ar  
     7     3    35 1   
     8     4    31 1   
     9     4    36 1   
    10     4    37 1   
    11     4    64 1   
    12     5     6 ar  
    13     5    25 ar  
    14     5    63 1   
    15     6     7 ar  
    16     6    38 1   
    17     7    24 ar  
    18     7    39 1   
    19     8    27 1   
    20     8    40 1   
    21     8    41 1   
    22     8    63 1   
    23     9    62 2   
    24    10    11 2   
    25    10    62 1   
    26    11    12 1   
    27    11    19 1   
    28    12    13 ar  
    29    12    18 ar  
    30    13    14 ar  
    31    13    42 1   
    32    14    15 ar  
    33    14    43 1   
    34    15    16 1   
    35    15    17 ar  
    36    16    44 1   
    37    17    18 ar  
    38    17    45 1   
    39    18    46 1   
    40    19    20 1   
    41    20    21 ar  
    42    21    22 ar  
    43    21    47 1   
    44    22    23 1   
    45    23    48 1   
    46    24    26 ar  
    47    24    62 1   
    48    25    26 ar  
    49    25    49 1   
    50    26    50 1   
    51    27    28 1   
    52    27    51 1   
    53    27    52 1   
    54    28    29 1   
    55    28    33 1   
    56    29    30 1   
    57    29    53 1   
    58    29    54 1   
    59    30    31 1   
    60    30    55 1   
    61    30    56 1   
    62    31    32 1   
    63    31    57 1   
    64    32    33 1   
    65    32    58 1   
    66    32    59 1   
    67    33    60 1   
    68    33    61 1   
@<TRIPOS>SUBSTRUCTURE
     1 LLB         1 TEMP              0 ****  ****    0 ROOT
