@<TRIPOS>MOLECULE
LLC
   58    62     1     0     0
SMALL
abcg2


@<TRIPOS>ATOM
      1 C4           0.6490    -1.1780     1.7370 ca         1 LLC      -0.047000
      2 C5          -0.5360    -1.8510     1.9720 ca         1 LLC      -0.177000
      3 C6          -1.2390    -2.4090     0.9070 ca         1 LLC       0.150100
      4 C8          -0.7250    -2.3070    -0.3840 ca         1 LLC      -0.177000
      5 C13          4.6040     2.2370    -1.3860 ca         1 LLC      -0.026000
      6 C15          6.6090     1.9740    -0.0570 ca         1 LLC       0.154100
      7 C20          0.2310     1.3440    -1.3790 ca         1 LLC      -0.213600
      8 C21         -0.7490     1.1780    -2.3620 ca         1 LLC      -0.020000
      9 C22         -2.0870     1.2170    -2.0390 ca         1 LLC      -0.193500
     10 C26         -5.7580     1.2660     0.8580 c3         1 LLC       0.171800
     11 C28         -7.5290    -0.2710     0.2760 c5         1 LLC       0.156300
     12 O19          2.0400     1.4340    -2.8760 o          1 LLC      -0.529100
     13 C33         -0.1750     1.6180    -0.0770 ca         1 LLC      -0.020000
     14 C32         -1.5160     1.6850     0.2590 ca         1 LLC      -0.193500
     15 C23         -2.4840     1.4500    -0.7170 ca         1 LLC       0.176100
     16 O24         -3.8010     1.4290    -0.4840 os         1 LLC      -0.325100
     17 C25         -4.2710     1.5390     0.8510 c3         1 LLC       0.163600
     18 N27         -6.0970    -0.0560     0.3940 n3         1 LLC      -0.709600
     19 C31         -5.6280    -1.1440     1.2320 c5         1 LLC       0.156300
     20 C30         -6.3530    -2.3610     0.6620 c5         1 LLC      -0.077900
     21 C29         -7.6690    -1.7870     0.0990 c5         1 LLC      -0.077900
     22 C1           2.6160     0.7240    -0.7220 cc         1 LLC      -0.139400
     23 C12          3.9660     1.2360    -0.6410 ca         1 LLC      -0.080800
     24 C14          5.9010     2.5970    -1.0970 ca         1 LLC      -0.144000
     25 O17          7.8750     2.3800     0.1540 oh         1 LLC      -0.531100
     26 C16          6.0050     0.9870     0.7030 ca         1 LLC      -0.192000
     27 C11          4.6940     0.6370     0.3980 ca         1 LLC      -0.129000
     28 S10          3.7510    -0.5630     1.2110 ss         1 LLC       0.072400
     29 C2           2.3670    -0.2480     0.2080 cd         1 LLC       0.046400
     30 C3           1.1590    -1.0410     0.4450 ca         1 LLC      -0.083800
     31 C9           0.4620    -1.6350    -0.6050 ca         1 LLC      -0.047000
     32 O7          -2.3960    -3.0400     1.1800 oh         1 LLC      -0.535100
     33 H4           1.1630    -0.7200     2.5740 ha         1 LLC       0.121500
     34 H5          -0.9250    -1.9330     2.9790 ha         1 LLC       0.124000
     35 H8          -1.2510    -2.7550    -1.2190 ha         1 LLC       0.124000
     36 H13          4.0880     2.7340    -2.1950 ha         1 LLC       0.138000
     37 H21         -0.4590     0.9720    -3.3840 ha         1 LLC       0.124000
     38 H22         -2.8410     1.0500    -2.7980 ha         1 LLC       0.125000
     39 H261        -6.1140     1.4500     1.8870 h1         1 LLC       0.042200
     40 H262        -6.2590     2.0010     0.2220 h1         1 LLC       0.042200
     41 H282        -7.9390     0.3020    -0.5590 h1         1 LLC       0.036450
     42 H33          0.5610     1.7880     0.6980 ha         1 LLC       0.124000
     43 H32         -1.7850     1.9080     1.2820 ha         1 LLC       0.125000
     44 H251        -4.0870     2.5450     1.2420 h1         1 LLC       0.038200
     45 H252        -3.7420     0.8340     1.5000 h1         1 LLC       0.038200
     46 H311        -4.5420    -1.2520     1.1910 h1         1 LLC       0.036450
     47 H312        -5.9020    -0.9910     2.2910 h1         1 LLC       0.036450
     48 H301        -5.7600    -2.8140    -0.1330 hc         1 LLC       0.045950
     49 H302        -6.5130    -3.1260     1.4210 hc         1 LLC       0.045950
     50 H291        -8.5440    -2.1620     0.6270 hc         1 LLC       0.045950
     51 H292        -7.7920    -2.0510    -0.9520 hc         1 LLC       0.045950
     52 H14          6.3900     3.3690    -1.6780 ha         1 LLC       0.132000
     53 HO17         8.2710     1.8900     0.8840 ho         1 LLC       0.466000
     54 H16          6.5380     0.4990     1.5120 ha         1 LLC       0.121000
     55 H9           0.8500    -1.5790    -1.6140 ha         1 LLC       0.121500
     56 HO7         -2.7850    -3.3960     0.3730 ho         1 LLC       0.469000
     57 C18          1.6510     1.1920    -1.7460 c          1 LLC       0.615900
     58 H281        -8.0630     0.0540     1.1850 h1         1 LLC       0.036450
@<TRIPOS>BOND
     1     1     2 ar  
     2     1    30 ar  
     3     1    33 1   
     4     2     3 ar  
     5     2    34 1   
     6     3     4 ar  
     7     3    32 1   
     8     4    31 ar  
     9     4    35 1   
    10     5    23 ar  
    11     5    24 ar  
    12     5    36 1   
    13     6    24 ar  
    14     6    25 1   
    15     6    26 ar  
    16     7     8 ar  
    17     7    13 ar  
    18     7    57 1   
    19     8     9 ar  
    20     8    37 1   
    21     9    15 ar  
    22     9    38 1   
    23    10    17 1   
    24    10    18 1   
    25    10    39 1   
    26    10    40 1   
    27    11    18 1   
    28    11    21 1   
    29    11    41 1   
    30    11    58 1   
    31    12    57 2   
    32    13    14 ar  
    33    13    42 1   
    34    14    15 ar  
    35    14    43 1   
    36    15    16 1   
    37    16    17 1   
    38    17    44 1   
    39    17    45 1   
    40    18    19 1   
    41    19    20 1   
    42    19    46 1   
    43    19    47 1   
    44    20    21 1   
    45    20    48 1   
    46    20    49 1   
    47    21    50 1   
    48    21    51 1   
    49    22    23 1   
    50    22    29 2   
    51    22    57 1   
    52    23    27 ar  
    53    24    52 1   
    54    25    53 1   
    55    26    27 ar  
    56    26    54 1   
    57    27    28 1   
    58    28    29 1   
    59    29    30 1   
    60    30    31 ar  
    61    31    55 1   
    62    32    56 1   
@<TRIPOS>SUBSTRUCTURE
     1 LLC         1 TEMP              0 ****  ****    0 ROOT
