@<TRIPOS>MOLECULE
LLC
   58    62     1     0     0
SMALL
No Charge or Current Charge


@<TRIPOS>ATOM
      1 C4           1.0570    -1.5820     1.8010 ca         1 LLC      -0.047000
      2 C5           0.0850    -2.5900     1.9210 ca         1 LLC      -0.177000
      3 C6          -0.5060    -3.1390     0.7780 ca         1 LLC       0.150100
      4 C8          -0.1180    -2.6900    -0.4920 ca         1 LLC      -0.177000
      5 C13          4.6510     2.2880    -1.4890 ca         1 LLC      -0.026000
      6 C15          6.7060     2.2160    -0.1690 ca         1 LLC       0.154100
      7 C20          0.2360     1.2120    -1.3450 ca         1 LLC      -0.213600
      8 C21         -0.7380     0.9600    -2.3350 ca         1 LLC      -0.020000
      9 C22         -2.1050     1.0030    -2.0150 ca         1 LLC      -0.193500
     10 C26         -5.9560     1.4890     0.8100 c3         1 LLC       0.171800
     11 C28         -7.9780     0.0870     0.3570 c5         1 LLC       0.156300
     12 O19          2.0550     1.4100    -2.8550 o          1 LLC      -0.529100
     13 C33         -0.1900     1.5480    -0.0400 ca         1 LLC      -0.020000
     14 C32         -1.5580     1.5900     0.2760 ca         1 LLC      -0.193500
     15 C23         -2.5230     1.3090    -0.7130 ca         1 LLC       0.176100
     16 O24         -3.8780     1.3260    -0.4580 os         1 LLC      -0.325100
     17 C25         -4.4080     1.5920     0.8560 c3         1 LLC       0.163600
     18 N27         -6.5070     0.1550     0.4430 n3         1 LLC      -0.709600
     19 C31         -6.1790    -0.9570     1.3600 c5         1 LLC       0.156300
     20 C30         -7.0010    -2.1250     0.7500 c5         1 LLC      -0.077900
     21 C29         -8.1960    -1.4150     0.0380 c5         1 LLC      -0.077900
     22 C1           2.6820     0.8780    -0.6120 cc         1 LLC      -0.139400
     23 C12          4.0470     1.4010    -0.5720 ca         1 LLC      -0.080800
     24 C14          5.9870     2.6880    -1.2820 ca         1 LLC      -0.144000
     25 O17          7.9950     2.6140     0.0210 oh         1 LLC      -0.531100
     26 C16          6.0920     1.3470     0.7480 ca         1 LLC      -0.192000
     27 C11          4.7630     0.9560     0.5240 ca         1 LLC      -0.129000
     28 S10          3.8300    -0.0900     1.5980 ss         1 LLC       0.072400
     29 C2           2.4680    -0.0280     0.4360 cd         1 LLC       0.046400
     30 C3           1.4410    -1.0960     0.5300 ca         1 LLC      -0.083800
     31 C9           0.8540    -1.6810    -0.6160 ca         1 LLC      -0.047000
     32 O7          -1.4460    -4.1170     0.9060 oh         1 LLC      -0.535100
     33 H4           1.4890    -1.1620     2.7060 ha         1 LLC       0.121500
     34 H5          -0.2110    -2.9420     2.9060 ha         1 LLC       0.124000
     35 H8          -0.5560    -3.1220    -1.3880 ha         1 LLC       0.124000
     36 H13          4.1110     2.6740    -2.3480 ha         1 LLC       0.138000
     37 H21         -0.4370     0.7110    -3.3520 ha         1 LLC       0.124000
     38 H22         -2.8460     0.7930    -2.7820 ha         1 LLC       0.125000
     39 H261        -6.3400     1.7840     1.7960 h1         1 LLC       0.042200
     40 H262        -6.3180     2.2410     0.0960 h1         1 LLC       0.042200
     41 H282        -8.3870     0.7390    -0.4260 h1         1 LLC       0.036450
     42 H33          0.5320     1.7870     0.7380 ha         1 LLC       0.124000
     43 H32         -1.8480     1.8450     1.2910 ha         1 LLC       0.125000
     44 H251        -4.1300     2.6020     1.1820 h1         1 LLC       0.038200
     45 H252        -4.0150     0.8750     1.5880 h1         1 LLC       0.038200
     46 H311        -5.1050    -1.1850     1.3860 h1         1 LLC       0.036450
     47 H312        -6.5080    -0.7370     2.3860 h1         1 LLC       0.036450
     48 H301        -6.4010    -2.6930     0.0300 hc         1 LLC       0.045950
     49 H302        -7.3320    -2.8300     1.5210 hc         1 LLC       0.045950
     50 H291        -9.1700    -1.7690     0.3950 hc         1 LLC       0.045950
     51 H292        -8.1650    -1.5920    -1.0440 hc         1 LLC       0.045950
     52 H14          6.4620     3.3680    -1.9840 ha         1 LLC       0.132000
     53 HO17         8.3300     2.1900     0.8400 ho         1 LLC       0.466000
     54 H16          6.6290     0.9830     1.6210 ha         1 LLC       0.121000
     55 H9           1.1640    -1.3860    -1.6130 ha         1 LLC       0.121500
     56 HO7         -1.7420    -4.3820     0.0090 ho         1 LLC       0.469000
     57 C18          1.7050     1.1400    -1.7120 c          1 LLC       0.615900
     58 H281        -8.4480     0.3620     1.3130 h1         1 LLC       0.036450
@<TRIPOS>BOND
     1     1     2 ar  
     2     1    30 ar  
     3     1    33 1   
     4     2     3 ar  
     5     2    34 1   
     6     3     4 ar  
     7     3    32 1   
     8     4    31 ar  
     9     4    35 1   
    10     5    23 ar  
    11     5    24 ar  
    12     5    36 1   
    13     6    24 ar  
    14     6    25 1   
    15     6    26 ar  
    16     7     8 ar  
    17     7    13 ar  
    18     7    57 1   
    19     8     9 ar  
    20     8    37 1   
    21     9    15 ar  
    22     9    38 1   
    23    10    17 1   
    24    10    18 1   
    25    10    39 1   
    26    10    40 1   
    27    11    18 1   
    28    11    21 1   
    29    11    41 1   
    30    11    58 1   
    31    12    57 2   
    32    13    14 ar  
    33    13    42 1   
    34    14    15 ar  
    35    14    43 1   
    36    15    16 1   
    37    16    17 1   
    38    17    44 1   
    39    17    45 1   
    40    18    19 1   
    41    19    20 1   
    42    19    46 1   
    43    19    47 1   
    44    20    21 1   
    45    20    48 1   
    46    20    49 1   
    47    21    50 1   
    48    21    51 1   
    49    22    23 1   
    50    22    29 2   
    51    22    57 1   
    52    23    27 ar  
    53    24    52 1   
    54    25    53 1   
    55    26    27 ar  
    56    26    54 1   
    57    27    28 1   
    58    28    29 1   
    59    29    30 1   
    60    30    31 ar  
    61    31    55 1   
    62    32    56 1   
@<TRIPOS>SUBSTRUCTURE
     1 LLC         1 TEMP              0 ****  ****    0 ROOT
