@<TRIPOS>MOLECULE
LLD
   55    57     1     0     0
SMALL
abcg2


@<TRIPOS>ATOM
      1 C15        -62.8900   -34.0240   225.8240 ca         1 LLD      -0.211600
      2 C17        -60.7050   -34.2740   226.7690 ca         1 LLD      -0.171000
      3 C20        -62.3470   -33.0500   224.9840 ca         1 LLD       0.382900
      4 C24        -67.7070   -32.5170   222.4270 ca         1 LLD      -0.068300
      5 C26        -67.9560   -30.1280   222.7010 ca         1 LLD      -0.111500
      6 C28        -69.7550   -31.4210   221.7570 ca         1 LLD      -0.111500
      7 C04        -63.6420   -35.0140   222.0990 c6         1 LLD       0.226800
      8 C05        -62.4880   -35.7360   221.4170 c6         1 LLD      -0.086400
      9 C06        -62.7870   -37.2290   221.2770 c6         1 LLD      -0.075400
     10 C07        -64.1110   -37.4530   220.5460 c6         1 LLD      -0.070400
     11 C08        -65.2660   -36.7040   221.2280 c6         1 LLD       0.188500
     12 C09        -65.6820   -37.4100   222.5240 c          1 LLD       0.565100
     13 C11        -66.2080   -37.1540   224.8250 c3         1 LLD       0.137600
     14 C12        -66.0910   -36.0630   225.8690 c3         1 LLD       0.093000
     15 C14        -64.3510   -34.3230   225.6970 c          1 LLD       0.619700
     16 C16        -62.0410   -34.6460   226.7370 ca         1 LLD      -0.049000
     17 C18        -60.2610   -33.3020   225.8810 ca         1 LLD       0.356900
     18 C23        -66.8720   -33.7550   222.5560 c3         1 LLD      -0.270100
     19 C25        -67.1950   -31.2830   222.8310 ca         1 LLD      -0.086000
     20 C27        -69.2380   -30.1930   222.1610 ca         1 LLD      -0.103000
     21 C29        -68.9930   -32.5760   221.8900 ca         1 LLD      -0.086000
     22 N03        -64.9010   -35.3000   221.3890 n3         1 LLD      -0.788500
     23 N13        -64.7290   -35.5800   226.0010 ns         1 LLD      -0.499900
     24 N19        -61.0630   -32.6960   224.9980 nb         1 LLD      -0.661000
     25 O01        -66.8810   -34.6060   220.0600 o          1 LLD      -0.541500
     26 O10        -65.8470   -36.5790   223.5490 os         1 LLD      -0.453100
     27 O21        -65.1380   -33.4520   225.3190 o          1 LLD      -0.605100
     28 O22        -65.8620   -38.6040   222.5850 o          1 LLD      -0.479000
     29 O30        -65.1720   -32.9240   220.7250 o          1 LLD      -0.541500
     30 S02        -65.9500   -34.1000   221.0480 s6         1 LLD       1.236100
     31 H1         -60.0180   -34.7250   227.4720 ha         1 LLD       0.130000
     32 H2         -62.9890   -32.5510   224.2680 h4         1 LLD       0.042100
     33 H3         -67.5490   -29.1760   223.0210 ha         1 LLD       0.113500
     34 H4         -70.7540   -31.4790   221.3420 ha         1 LLD       0.113500
     35 H5         -63.7320   -35.3470   223.1360 h1         1 LLD       0.056700
     36 H6         -63.4870   -33.9400   222.0990 h1         1 LLD       0.056700
     37 H7         -61.5810   -35.5780   222.0050 hc         1 LLD       0.055700
     38 H8         -62.3240   -35.2970   220.4290 hc         1 LLD       0.055700
     39 H9         -62.8330   -37.6860   222.2710 hc         1 LLD       0.044700
     40 H10        -61.9810   -37.7290   220.7370 hc         1 LLD       0.044700
     41 H11        -64.0390   -37.0760   219.5240 hc         1 LLD       0.067200
     42 H12        -64.3590   -38.5120   220.4960 hc         1 LLD       0.067200
     43 H13        -66.1430   -36.7510   220.5830 h1         1 LLD       0.110700
     44 H14        -67.2310   -37.5270   224.7750 h1         1 LLD       0.060200
     45 H15        -65.5360   -37.9860   225.0370 h1         1 LLD       0.060200
     46 H16        -66.7210   -35.2160   225.6110 h1         1 LLD       0.077700
     47 H17        -66.4350   -36.4710   226.8220 h1         1 LLD       0.077700
     48 H18        -62.4110   -35.3900   227.4310 ha         1 LLD       0.118000
     49 H19        -59.2220   -32.9940   225.8800 h4         1 LLD       0.026100
     50 H20        -67.4710   -34.6470   222.7330 h1         1 LLD       0.106700
     51 H21        -66.1310   -33.6650   223.3490 h1         1 LLD       0.106700
     52 H22        -66.1980   -31.2330   223.2500 ha         1 LLD       0.120500
     53 H23        -69.8310   -29.2930   222.0590 ha         1 LLD       0.111000
     54 H24        -69.3980   -33.5310   221.5780 ha         1 LLD       0.120500
     55 H25        -64.0200   -36.2570   226.2360 hn         1 LLD       0.315500
@<TRIPOS>BOND
     1     1     3 ar  
     2     1    15 1   
     3     1    16 ar  
     4     2    16 ar  
     5     2    17 ar  
     6     2    31 1   
     7     3    24 ar  
     8     3    32 1   
     9     4    18 1   
    10     4    19 ar  
    11     4    21 ar  
    12     5    19 ar  
    13     5    20 ar  
    14     5    33 1   
    15     6    20 ar  
    16     6    21 ar  
    17     6    34 1   
    18     7     8 1   
    19     7    22 1   
    20     7    35 1   
    21     7    36 1   
    22     8     9 1   
    23     8    37 1   
    24     8    38 1   
    25     9    10 1   
    26     9    39 1   
    27     9    40 1   
    28    10    11 1   
    29    10    41 1   
    30    10    42 1   
    31    11    12 1   
    32    11    22 1   
    33    11    43 1   
    34    12    26 1   
    35    12    28 2   
    36    13    14 1   
    37    13    26 1   
    38    13    44 1   
    39    13    45 1   
    40    14    23 1   
    41    14    46 1   
    42    14    47 1   
    43    15    23 1   
    44    15    27 2   
    45    16    48 1   
    46    17    24 ar  
    47    17    49 1   
    48    18    30 1   
    49    18    50 1   
    50    18    51 1   
    51    19    52 1   
    52    20    53 1   
    53    21    54 1   
    54    22    30 1   
    55    23    55 1   
    56    25    30 2   
    57    29    30 2   
@<TRIPOS>SUBSTRUCTURE
     1 LLD         1 TEMP              0 ****  ****    0 ROOT
