@<TRIPOS>MOLECULE
LLD
   55    57     1     0     0
SMALL
No Charge or Current Charge


@<TRIPOS>ATOM
      1 C15        -62.6820   -34.7100   225.8570 ca         1 LLD      -0.211600
      2 C17        -60.3540   -35.3650   225.8770 ca         1 LLD      -0.171000
      3 C20        -62.2420   -33.3760   225.7620 ca         1 LLD       0.382900
      4 C24        -67.7990   -32.0460   221.9440 ca         1 LLD      -0.068300
      5 C26        -68.8700   -29.9560   221.2810 ca         1 LLD      -0.111500
      6 C28        -70.2250   -31.8180   222.0670 ca         1 LLD      -0.111500
      7 C04        -63.7860   -34.2480   222.1610 c6         1 LLD       0.226800
      8 C05        -62.4450   -35.0190   222.1490 c6         1 LLD      -0.086400
      9 C06        -62.6520   -36.5290   222.3980 c6         1 LLD      -0.075400
     10 C07        -63.7130   -37.0940   221.4200 c6         1 LLD      -0.070400
     11 C08        -65.0540   -36.2970   221.4830 c6         1 LLD       0.188500
     12 C09        -65.9220   -36.6180   222.7660 c          1 LLD       0.565100
     13 C11        -66.0750   -37.9300   224.8220 c3         1 LLD       0.137600
     14 C12        -65.9310   -36.7750   225.8480 c3         1 LLD       0.093000
     15 C14        -64.1580   -34.9760   225.8700 c          1 LLD       0.619700
     16 C16        -61.7070   -35.7330   225.9180 ca         1 LLD      -0.049000
     17 C18        -60.0120   -34.0080   225.7790 ca         1 LLD       0.356900
     18 C23        -66.5420   -32.8820   222.1420 c3         1 LLD      -0.270100
     19 C25        -67.7070   -30.7260   221.4610 ca         1 LLD      -0.086000
     20 C27        -70.1290   -30.5020   221.5830 ca         1 LLD      -0.103000
     21 C29        -69.0620   -32.5880   222.2470 ca         1 LLD      -0.086000
     22 N03        -64.7460   -34.8420   221.1990 n3         1 LLD      -0.788500
     23 N13        -64.5440   -36.2940   225.9690 ns         1 LLD      -0.499900
     24 N19        -60.9350   -33.0230   225.7230 nb         1 LLD      -0.661000
     25 O01        -67.1450   -34.7070   220.3000 o          1 LLD      -0.541500
     26 O10        -65.3970   -37.5900   223.5900 os         1 LLD      -0.453100
     27 O21        -64.9780   -34.0750   225.7800 o          1 LLD      -0.605100
     28 O22        -66.9940   -36.0730   222.9960 o          1 LLD      -0.479000
     29 O30        -65.4690   -32.9180   219.6740 o          1 LLD      -0.541500
     30 S02        -66.0400   -33.8200   220.6810 s6         1 LLD       1.236100
     31 H1         -59.5720   -36.1180   225.9180 ha         1 LLD       0.130000
     32 H2         -62.9520   -32.5510   225.7090 h4         1 LLD       0.042100
     33 H3         -68.7940   -28.9370   220.9070 ha         1 LLD       0.113500
     34 H4         -71.1990   -32.2410   222.3010 ha         1 LLD       0.113500
     35 H5         -64.2060   -34.2520   223.1760 h1         1 LLD       0.056700
     36 H6         -63.5740   -33.2010   221.9000 h1         1 LLD       0.056700
     37 H7         -61.7670   -34.6010   222.9050 hc         1 LLD       0.055700
     38 H8         -61.9560   -34.8720   221.1770 hc         1 LLD       0.055700
     39 H9         -62.9620   -36.6960   223.4370 hc         1 LLD       0.044700
     40 H10        -61.7000   -37.0630   222.2700 hc         1 LLD       0.044700
     41 H11        -63.3190   -37.0350   220.3960 hc         1 LLD       0.067200
     42 H12        -63.8830   -38.1620   221.6110 hc         1 LLD       0.067200
     43 H13        -65.6680   -36.7070   220.6670 h1         1 LLD       0.110700
     44 H14        -67.1370   -38.1480   224.6490 h1         1 LLD       0.060200
     45 H15        -65.6200   -38.8310   225.2530 h1         1 LLD       0.060200
     46 H16        -66.5930   -35.9500   225.5560 h1         1 LLD       0.077700
     47 H17        -66.2680   -37.1280   226.8310 h1         1 LLD       0.077700
     48 H18        -61.9710   -36.7850   225.9900 ha         1 LLD       0.118000
     49 H19        -58.9680   -33.6990   225.7450 h4         1 LLD       0.026100
     50 H20        -66.6890   -33.6080   222.9440 h1         1 LLD       0.106700
     51 H21        -65.6940   -32.2390   222.3980 h1         1 LLD       0.106700
     52 H22        -66.7360   -30.2960   221.2250 ha         1 LLD       0.120500
     53 H23        -71.0280   -29.9060   221.4440 ha         1 LLD       0.111000
     54 H24        -69.1440   -33.6060   222.6210 ha         1 LLD       0.120500
     55 H25        -63.8060   -36.9820   226.0400 hn         1 LLD       0.315500
@<TRIPOS>BOND
     1     1     3 ar  
     2     1    15 1   
     3     1    16 ar  
     4     2    16 ar  
     5     2    17 ar  
     6     2    31 1   
     7     3    24 ar  
     8     3    32 1   
     9     4    18 1   
    10     4    19 ar  
    11     4    21 ar  
    12     5    19 ar  
    13     5    20 ar  
    14     5    33 1   
    15     6    20 ar  
    16     6    21 ar  
    17     6    34 1   
    18     7     8 1   
    19     7    22 1   
    20     7    35 1   
    21     7    36 1   
    22     8     9 1   
    23     8    37 1   
    24     8    38 1   
    25     9    10 1   
    26     9    39 1   
    27     9    40 1   
    28    10    11 1   
    29    10    41 1   
    30    10    42 1   
    31    11    12 1   
    32    11    22 1   
    33    11    43 1   
    34    12    26 1   
    35    12    28 2   
    36    13    14 1   
    37    13    26 1   
    38    13    44 1   
    39    13    45 1   
    40    14    23 1   
    41    14    46 1   
    42    14    47 1   
    43    15    23 1   
    44    15    27 2   
    45    16    48 1   
    46    17    24 ar  
    47    17    49 1   
    48    18    30 1   
    49    18    50 1   
    50    18    51 1   
    51    19    52 1   
    52    20    53 1   
    53    21    54 1   
    54    22    30 1   
    55    23    55 1   
    56    25    30 2   
    57    29    30 2   
@<TRIPOS>SUBSTRUCTURE
     1 LLD         1 TEMP              0 ****  ****    0 ROOT
