@<TRIPOS>MOLECULE
LLG
   32    33     1     0     0
SMALL
abcg2


@<TRIPOS>ATOM
      1 N1           5.0910     1.1860    -0.7430 n8         1 LLG      -0.993200
      2 C4           3.7080     0.0230     0.9140 c3         1 LLG       0.167600
      3 C5           5.0570     0.1190     0.2430 c3         1 LLG       0.146800
      4 C6           0.6090    -0.8140    -0.9150 c3         1 LLG      -0.093100
      5 C7           1.4800    -0.4720     0.2730 c          1 LLG       0.591100
      6 C10         -1.9690     2.5610    -0.0340 ca         1 LLG      -0.104000
      7 C13         -3.0130    -0.0290     0.0860 ca         1 LLG      -0.036000
      8 C15         -0.8370    -0.9670    -0.5520 ca         1 LLG      -0.063300
      9 C17         -2.7430    -2.4150    -0.1450 ca         1 LLG      -0.110000
     10 O6           2.7460    -0.3360    -0.0910 os         1 LLG      -0.462100
     11 C16         -1.3910    -2.2200    -0.4920 ca         1 LLG      -0.094000
     12 C18         -3.5380    -1.3420     0.1410 ca         1 LLG      -0.090000
     13 C14         -1.6510     0.1670    -0.2680 ca         1 LLG      -0.012000
     14 C9          -1.1580     1.4940    -0.3190 ca         1 LLG      -0.097000
     15 C11         -3.3170     2.3600     0.3240 ca         1 LLG      -0.107000
     16 C12         -3.8250     1.0920     0.3790 ca         1 LLG      -0.098000
     17 O8           1.0890    -0.3450     1.4040 o          1 LLG      -0.471000
     18 HN1          6.0420     1.3060    -1.0680 hn         1 LLG       0.398000
     19 HN1A         4.5600     0.9120    -1.5600 hn         1 LLG       0.398000
     20 H4           3.7280    -0.7350     1.7000 h1         1 LLG       0.057200
     21 H4A          3.4330     0.9810     1.3600 h1         1 LLG       0.057200
     22 H5           5.3330    -0.8690    -0.1500 h1         1 LLG       0.037200
     23 H5A          5.7790     0.3480     1.0300 h1         1 LLG       0.037200
     24 H6           0.7590    -0.0560    -1.6900 hc         1 LLG       0.076700
     25 H6A          0.9850    -1.7460    -1.3470 hc         1 LLG       0.076700
     26 H17         -3.1430    -3.4200    -0.1060 ha         1 LLG       0.114000
     27 H16         -0.7780    -3.0850    -0.7140 ha         1 LLG       0.109000
     28 H18         -4.5780    -1.4820     0.4090 ha         1 LLG       0.113000
     29 H9          -0.1300     1.6840    -0.5970 ha         1 LLG       0.111000
     30 H11         -3.9460     3.2110     0.5490 ha         1 LLG       0.113000
     31 H12         -4.8620     0.9280     0.6470 ha         1 LLG       0.112000
     32 H10         -1.5720     3.5660    -0.0830 ha         1 LLG       0.113000
@<TRIPOS>BOND
     1     1     3 1   
     2     1    18 1   
     3     1    19 1   
     4     2     3 1   
     5     2    10 1   
     6     2    20 1   
     7     2    21 1   
     8     3    22 1   
     9     3    23 1   
    10     4     5 1   
    11     4     8 1   
    12     4    24 1   
    13     4    25 1   
    14     5    10 1   
    15     5    17 2   
    16     6    14 ar  
    17     6    15 ar  
    18     6    32 1   
    19     7    12 ar  
    20     7    13 ar  
    21     7    16 ar  
    22     8    11 ar  
    23     8    13 ar  
    24     9    11 ar  
    25     9    12 ar  
    26     9    26 1   
    27    11    27 1   
    28    12    28 1   
    29    13    14 ar  
    30    14    29 1   
    31    15    16 ar  
    32    15    30 1   
    33    16    31 1   
@<TRIPOS>SUBSTRUCTURE
     1 LLG         1 TEMP              0 ****  ****    0 ROOT
