@<TRIPOS>MOLECULE
LLG
   32    33     1     0     0
SMALL
No Charge or Current Charge


@<TRIPOS>ATOM
      1 N1           3.7050     2.1790     0.1150 n8         1 LLG      -0.993200
      2 C4           3.5250    -0.2420     0.8640 c3         1 LLG       0.167600
      3 C5           4.4330     0.9050     0.3470 c3         1 LLG       0.146800
      4 C6           0.5930    -1.6860    -0.9990 c3         1 LLG      -0.093100
      5 C7           1.6120    -1.5150     0.1320 c          1 LLG       0.591100
      6 C10         -1.0220     2.3980    -0.5560 ca         1 LLG      -0.104000
      7 C13         -2.6450     0.1850     0.0500 ca         1 LLG      -0.036000
      8 C15         -0.8300    -1.3610    -0.5290 ca         1 LLG      -0.063300
      9 C17         -2.9930    -2.2150     0.2330 ca         1 LLG      -0.110000
     10 O6           2.5050    -0.5070    -0.1250 os         1 LLG      -0.462100
     11 C16         -1.6810    -2.4400    -0.2070 ca         1 LLG      -0.094000
     12 C18         -3.4760    -0.9060     0.3610 ca         1 LLG      -0.090000
     13 C14         -1.3160    -0.0310    -0.3970 ca         1 LLG      -0.012000
     14 C9          -0.5130     1.0960    -0.6980 ca         1 LLG      -0.097000
     15 C11         -2.3380     2.5980    -0.1140 ca         1 LLG      -0.107000
     16 C12         -3.1480     1.4930     0.1880 ca         1 LLG      -0.098000
     17 O8           1.6330    -2.2160     1.1360 o          1 LLG      -0.471000
     18 HN1          4.3210     2.8330    -0.3830 hn         1 LLG       0.398000
     19 HN1A         2.9500     1.9960    -0.5560 hn         1 LLG       0.398000
     20 H4           4.1420    -1.1350     1.0350 h1         1 LLG       0.057200
     21 H4A          3.0750     0.0520     1.8220 h1         1 LLG       0.057200
     22 H5           4.8970     0.5900    -0.5990 h1         1 LLG       0.037200
     23 H5A          5.2380     1.0870     1.0730 h1         1 LLG       0.037200
     24 H6           0.8720    -1.0610    -1.8550 hc         1 LLG       0.076700
     25 H6A          0.6440    -2.7300    -1.3280 hc         1 LLG       0.076700
     26 H17         -3.6370    -3.0580     0.4770 ha         1 LLG       0.114000
     27 H16         -1.3240    -3.4630    -0.2960 ha         1 LLG       0.109000
     28 H18         -4.4950    -0.7410     0.7040 ha         1 LLG       0.113000
     29 H9           0.5090     0.9850    -1.0420 ha         1 LLG       0.111000
     30 H11         -2.7290     3.6070    -0.0060 ha         1 LLG       0.113000
     31 H12         -4.1670     1.6550     0.5310 ha         1 LLG       0.112000
     32 H10         -0.3930     3.2540    -0.7910 ha         1 LLG       0.113000
@<TRIPOS>BOND
     1     1     3 1   
     2     1    18 1   
     3     1    19 1   
     4     2     3 1   
     5     2    10 1   
     6     2    20 1   
     7     2    21 1   
     8     3    22 1   
     9     3    23 1   
    10     4     5 1   
    11     4     8 1   
    12     4    24 1   
    13     4    25 1   
    14     5    10 1   
    15     5    17 2   
    16     6    14 ar  
    17     6    15 ar  
    18     6    32 1   
    19     7    12 ar  
    20     7    13 ar  
    21     7    16 ar  
    22     8    11 ar  
    23     8    13 ar  
    24     9    11 ar  
    25     9    12 ar  
    26     9    26 1   
    27    11    27 1   
    28    12    28 1   
    29    13    14 ar  
    30    14    29 1   
    31    15    16 ar  
    32    15    30 1   
    33    16    31 1   
@<TRIPOS>SUBSTRUCTURE
     1 LLG         1 TEMP              0 ****  ****    0 ROOT
