@<TRIPOS>MOLECULE
LLH
   21    20     1     0     0
SMALL
No Charge or Current Charge


@<TRIPOS>ATOM
      1 O5A         -3.9100    -0.3650    -0.1670 o          1 LLH      -0.710500
      2 C5          -2.9520     0.1090     0.4310 c          1 LLH       0.701000
      3 O5B         -2.9570     0.3590     1.6280 o          1 LLH      -0.710500
      4 C4          -1.6700     0.4380    -0.4170 c3         1 LLH      -0.018700
      5 O4          -1.7610    -0.0610    -1.7950 oh         1 LLH      -0.783000
      6 C3          -0.3650    -0.0940     0.2480 c3         1 LLH       0.146300
      7 O3          -0.2520    -1.4610    -0.1550 oh         1 LLH      -0.654000
      8 C2           0.9150     0.6930    -0.1710 c3         1 LLH       0.063300
      9 O2           0.8250     2.0840     0.2610 oh         1 LLH      -0.703000
     10 C1           2.1980     0.0070     0.3930 c          1 LLH       0.579100
     11 O1           2.5610     0.1630     1.5560 o          1 LLH      -0.594100
     12 N            2.9520    -0.7170    -0.5290 ns         1 LLH      -0.377400
     13 ON           4.0460    -1.5630    -0.0990 oh         1 LLH      -0.434100
     14 H4          -1.6250     1.5350    -0.4310 h1         1 LLH       0.051700
     15 HO4         -2.7310    -0.2200    -1.9460 ho         1 LLH       0.540000
     16 H3          -0.4550    -0.0240     1.3420 h1         1 LLH       0.099700
     17 HO3         -0.7530    -1.4620    -1.0080 ho         1 LLH       0.441000
     18 H2           0.9840     0.6560    -1.2660 h1         1 LLH       0.081700
     19 HO2          1.1910     2.1270     1.1780 ho         1 LLH       0.515000
     20 HN           2.5450    -0.9380    -1.4370 hn         1 LLH       0.332500
     21 HON          4.7850    -1.3070    -0.6990 ho         1 LLH       0.432000
@<TRIPOS>BOND
     1     1     2 1   
     2     2     3 1   
     3     2     4 1   
     4     4     5 1   
     5     4     6 1   
     6     4    14 1   
     7     5    15 1   
     8     6     7 1   
     9     6     8 1   
    10     6    16 1   
    11     7    17 1   
    12     8     9 1   
    13     8    10 1   
    14     8    18 1   
    15     9    19 1   
    16    10    11 2   
    17    10    12 1   
    18    12    13 1   
    19    12    20 1   
    20    13    21 1   
@<TRIPOS>SUBSTRUCTURE
     1 LLH         1 TEMP              0 ****  ****    0 ROOT
