@<TRIPOS>MOLECULE
LLH
   21    20     1     0     0
SMALL
bcc


@<TRIPOS>ATOM
      1 O5A         -3.6640    -0.5990    -0.4060 o          1 LLH      -0.815800
      2 C5          -2.8680    -0.0340     0.3770 c          1 LLH       0.911600
      3 O5B         -2.9660     0.0850     1.6060 o          1 LLH      -0.815800
      4 C4          -1.6290     0.5900    -0.3080 c3         1 LLH      -0.041900
      5 O4          -1.6910     0.3440    -1.6920 oh         1 LLH      -0.660800
      6 C3          -0.3500    -0.0060     0.2700 c3         1 LLH       0.123100
      7 O3          -0.2850    -1.3940     0.0380 oh         1 LLH      -0.591800
      8 C2           0.9120     0.6700    -0.2900 c3         1 LLH       0.040100
      9 O2           0.9710     2.0360     0.0220 oh         1 LLH      -0.580800
     10 C1           2.1330    -0.0430     0.2830 c          1 LLH       0.646100
     11 O1           2.4660     0.1110     1.4460 o          1 LLH      -0.594100
     12 N            2.8020    -0.7960    -0.6010 ns         1 LLH      -0.444400
     13 ON           3.7830    -1.6400    -0.1740 oh         1 LLH      -0.395100
     14 H4          -1.6350     1.6690    -0.1040 h1         1 LLH       0.051700
     15 HO4         -2.5300    -0.1530    -1.7700 ho         1 LLH       0.441000
     16 H3          -0.3650     0.1360     1.3550 h1         1 LLH       0.099700
     17 HO3         -0.5060    -1.5420    -0.8900 ho         1 LLH       0.402000
     18 H2           0.9040     0.6000    -1.3830 h1         1 LLH       0.081700
     19 HO2          1.0490     2.1240     0.9790 ho         1 LLH       0.416000
     20 HN           2.4220    -1.0200    -1.5100 hn         1 LLH       0.332500
     21 HON          4.6180    -1.1800    -0.3310 ho         1 LLH       0.393000
@<TRIPOS>BOND
     1     1     2 1   
     2     2     3 1   
     3     2     4 1   
     4     4     5 1   
     5     4     6 1   
     6     4    14 1   
     7     5    15 1   
     8     6     7 1   
     9     6     8 1   
    10     6    16 1   
    11     7    17 1   
    12     8     9 1   
    13     8    10 1   
    14     8    18 1   
    15     9    19 1   
    16    10    11 2   
    17    10    12 1   
    18    12    13 1   
    19    12    20 1   
    20    13    21 1   
@<TRIPOS>SUBSTRUCTURE
     1 LLH         1 TEMP              0 ****  ****    0 ROOT
