@<TRIPOS>MOLECULE
LLI
   71    75     1     0     0
SMALL
No Charge or Current Charge


@<TRIPOS>ATOM
      1 C2           2.2190    -1.1310     0.6490 ca         1 LLI       0.113100
      2 C3           2.4930    -2.4980     0.8770 ca         1 LLI       0.121100
      3 O1           3.2400    -0.2140     0.8370 os         1 LLI      -0.334100
      4 C12         -2.5660    -2.2460    -0.7900 c6         1 LLI      -0.128000
      5 C14         -3.5270    -1.5970    -1.8380 c6         1 LLI      -0.142700
      6 C15         -4.0030    -0.2120    -1.3330 c          1 LLI       0.558000
      7 C16         -3.3440    -2.7260     0.4770 c6         1 LLI      -0.038200
      8 C17         -4.6860    -3.3660     0.1640 c2         1 LLI      -0.224200
      9 C18         -4.6630    -2.5880    -2.2310 c6         1 LLI      -0.028200
     10 C19         -5.2770    -3.3010    -1.0390 c2         1 LLI      -0.209200
     11 C21         -3.5290     1.7920     0.1130 c3         1 LLI       0.138700
     12 C22         -3.0130     2.9650    -0.7660 c3         1 LLI      -0.079900
     13 C23         -3.0560     1.9260     1.5880 c3         1 LLI      -0.079900
     14 C24         -3.6630     4.3450    -0.5180 c3         1 LLI      -0.069900
     15 C25         -3.9280     2.8110     2.5120 c3         1 LLI      -0.069900
     16 C26         -4.5170     4.1060     1.9080 c3         1 LLI      -0.072400
     17 C27         -3.5990     4.8740     0.9330 c3         1 LLI      -0.072400
     18 C28          3.0810     1.1950     0.5810 c3         1 LLI       0.142600
     19 C29          4.4290     1.8970     0.8560 c3         1 LLI       0.123000
     20 C4           0.9250    -0.7340     0.2410 ca         1 LLI      -0.141000
     21 C5           1.4670    -3.4490     0.6980 ca         1 LLI      -0.179000
     22 C6          -0.1090    -1.6830     0.0460 ca         1 LLI      -0.116900
     23 C7           0.1840    -3.0450     0.2930 ca         1 LLI      -0.093000
     24 O8           3.7700    -2.8640     1.2730 os         1 LLI      -0.325100
     25 C9           4.1390    -4.2320     1.5220 c3         1 LLI       0.144900
     26 C10         -1.4900    -1.2270    -0.3650 ce         1 LLI       0.398900
     27 N11         -1.7920     0.0390    -0.3260 n2         1 LLI      -0.451300
     28 N13         -3.1020     0.4930    -0.4750 n          1 LLI      -0.179800
     29 N30          5.5230     1.4720    -0.0470 n          1 LLI      -0.421800
     30 C31          6.3790     0.2900     0.1540 c5         1 LLI       0.089000
     31 C32          5.8610     2.1910    -1.1720 c          1 LLI       0.584000
     32 C33          7.3510     0.3660    -1.0780 c5         1 LLI       0.066000
     33 N34          6.9050     1.5770    -1.7800 ns         1 LLI      -0.485900
     34 O35          5.3210     3.2070    -1.5710 o          1 LLI      -0.584000
     35 H1          -2.0930    -3.1130    -1.2680 hc         1 LLI       0.072700
     36 H2          -2.9240    -1.3740    -2.7290 hc         1 LLI       0.077700
     37 H3          -2.7270    -3.4350     1.0450 hc         1 LLI       0.056700
     38 H4          -3.5210    -1.8780     1.1540 hc         1 LLI       0.056700
     39 H5          -5.1700    -3.8950     0.9880 ha         1 LLI       0.176000
     40 H6          -5.4450    -2.0670    -2.8000 hc         1 LLI       0.062700
     41 H7          -4.2580    -3.3480    -2.9150 hc         1 LLI       0.062700
     42 H8          -6.2450    -3.7780    -1.2080 ha         1 LLI       0.177000
     43 H9          -4.6260     1.8150     0.1180 h1         1 LLI       0.084700
     44 H10         -1.9260     3.0540    -0.6490 hc         1 LLI       0.046950
     45 H11         -3.1810     2.7100    -1.8190 hc         1 LLI       0.046950
     46 H12         -3.0230     0.9280     2.0440 hc         1 LLI       0.046950
     47 H13         -2.0220     2.2920     1.6060 hc         1 LLI       0.046950
     48 H14         -3.1680     5.0740    -1.1720 hc         1 LLI       0.038200
     49 H15         -4.7100     4.3100    -0.8430 hc         1 LLI       0.038200
     50 H16         -4.7620     2.2070     2.8920 hc         1 LLI       0.038200
     51 H17         -3.3260     3.0760     3.3900 hc         1 LLI       0.038200
     52 H18         -5.4620     3.8710     1.4020 hc         1 LLI       0.037950
     53 H19         -4.7830     4.7730     2.7370 hc         1 LLI       0.037950
     54 H20         -2.5650     4.8720     1.2970 hc         1 LLI       0.037950
     55 H21         -3.9210     5.9230     0.9200 hc         1 LLI       0.037950
     56 H22          2.7890     1.3730    -0.4620 h1         1 LLI       0.047200
     57 H23          2.3140     1.6220     1.2380 h1         1 LLI       0.047200
     58 H24          4.2850     2.9810     0.7700 h1         1 LLI       0.064200
     59 H25          4.7280     1.6930     1.8920 h1         1 LLI       0.064200
     60 H26          0.7140     0.3170     0.0670 ha         1 LLI       0.141000
     61 H27          1.6420    -4.5070     0.8700 ha         1 LLI       0.120000
     62 H28         -0.5760    -3.8130     0.1790 ha         1 LLI       0.115000
     63 H29          5.1930    -4.2920     1.8210 h1         1 LLI       0.040700
     64 H30          3.5320    -4.6600     2.3300 h1         1 LLI       0.040700
     65 H31          4.0070    -4.8420     0.6190 h1         1 LLI       0.040700
     66 H32          6.9250     0.3490     1.1040 h1         1 LLI       0.059700
     67 H33          5.7920    -0.6380     0.1450 h1         1 LLI       0.059700
     68 H34          8.3970     0.4470    -0.7540 h1         1 LLI       0.049700
     69 H35          7.2590    -0.5260    -1.7110 h1         1 LLI       0.049700
     70 H36          7.2910     1.9680    -2.6320 hn         1 LLI       0.319500
     71 O20         -5.0510     0.2870    -1.7300 o          1 LLI      -0.532000
@<TRIPOS>BOND
     1     1     2 ar  
     2     1     3 1   
     3     1    20 ar  
     4     2    21 ar  
     5     2    24 1   
     6     3    18 1   
     7     4     5 1   
     8     4     7 1   
     9     4    26 1   
    10     4    35 1   
    11     5     6 1   
    12     5     9 1   
    13     5    36 1   
    14     6    28 1   
    15     6    71 2   
    16     7     8 1   
    17     7    37 1   
    18     7    38 1   
    19     8    10 2   
    20     8    39 1   
    21     9    10 1   
    22     9    40 1   
    23     9    41 1   
    24    10    42 1   
    25    11    12 1   
    26    11    13 1   
    27    11    28 1   
    28    11    43 1   
    29    12    14 1   
    30    12    44 1   
    31    12    45 1   
    32    13    15 1   
    33    13    46 1   
    34    13    47 1   
    35    14    17 1   
    36    14    48 1   
    37    14    49 1   
    38    15    16 1   
    39    15    50 1   
    40    15    51 1   
    41    16    17 1   
    42    16    52 1   
    43    16    53 1   
    44    17    54 1   
    45    17    55 1   
    46    18    19 1   
    47    18    56 1   
    48    18    57 1   
    49    19    29 1   
    50    19    58 1   
    51    19    59 1   
    52    20    22 ar  
    53    20    60 1   
    54    21    23 ar  
    55    21    61 1   
    56    22    23 ar  
    57    22    26 1   
    58    23    62 1   
    59    24    25 1   
    60    25    63 1   
    61    25    64 1   
    62    25    65 1   
    63    26    27 2   
    64    27    28 1   
    65    29    30 1   
    66    29    31 1   
    67    30    32 1   
    68    30    66 1   
    69    30    67 1   
    70    31    33 1   
    71    31    34 2   
    72    32    33 1   
    73    32    68 1   
    74    32    69 1   
    75    33    70 1   
@<TRIPOS>SUBSTRUCTURE
     1 LLI         1 TEMP              0 ****  ****    0 ROOT
