@<TRIPOS>MOLECULE
LLI
   71    75     1     0     0
SMALL
abcg2


@<TRIPOS>ATOM
      1 C2           2.0570    -1.0260     0.6600 ca         1 LLI       0.113100
      2 C3           2.4430    -2.3870     0.7040 ca         1 LLI       0.121100
      3 O1           3.0260    -0.1460     0.9620 os         1 LLI      -0.334100
      4 C12         -2.6080    -2.3030    -0.6780 c6         1 LLI      -0.128000
      5 C14         -3.5540    -1.6380    -1.6730 c6         1 LLI      -0.142700
      6 C15         -4.0870    -0.3520    -1.0840 c          1 LLI       0.558000
      7 C16         -3.3550    -2.8160     0.5630 c6         1 LLI      -0.038200
      8 C17         -4.6600    -3.4610     0.2140 c2         1 LLI      -0.224200
      9 C18         -4.6500    -2.5920    -2.1220 c6         1 LLI      -0.028200
     10 C19         -5.2340    -3.3650    -0.9810 c2         1 LLI      -0.209200
     11 C21         -3.4280     1.7060     0.1200 c3         1 LLI       0.138700
     12 C22         -2.6790     2.6880    -0.7850 c3         1 LLI      -0.079900
     13 C23         -3.0330     1.8440     1.5940 c3         1 LLI      -0.079900
     14 C24         -3.0520     4.1560    -0.6190 c3         1 LLI      -0.069900
     15 C25         -3.8450     2.8700     2.3850 c3         1 LLI      -0.069900
     16 C26         -4.0920     4.2230     1.7090 c3         1 LLI      -0.072400
     17 C27         -2.9730     4.7250     0.7960 c3         1 LLI      -0.072400
     18 C28          2.7960     1.2320     0.7400 c3         1 LLI       0.142600
     19 C29          4.1110     1.9550     0.9400 c3         1 LLI       0.123000
     20 C4           0.7630    -0.6910     0.3280 ca         1 LLI      -0.141000
     21 C5           1.5060    -3.3600     0.4060 ca         1 LLI      -0.179000
     22 C6          -0.1890    -1.6790     0.0250 ca         1 LLI      -0.116900
     23 C7           0.2020    -3.0080     0.0630 ca         1 LLI      -0.093000
     24 O8           3.7210    -2.6160     1.0390 os         1 LLI      -0.325100
     25 C9           4.1680    -3.9560     1.1030 c3         1 LLI       0.144900
     26 C10         -1.5750    -1.2930    -0.2810 ce         1 LLI       0.398900
     27 N11         -1.8880    -0.0620    -0.1440 n2         1 LLI      -0.451300
     28 N13         -3.1750     0.3380    -0.3410 n          1 LLI      -0.179800
     29 N30          5.1340     1.5100     0.0320 n          1 LLI      -0.421800
     30 C31          6.1230     0.5110     0.3840 c5         1 LLI       0.089000
     31 C32          5.5290     2.2330    -1.0520 c          1 LLI       0.584000
     32 C33          6.9080     0.3790    -0.9220 c5         1 LLI       0.066000
     33 N34          6.6890     1.6800    -1.5220 ns         1 LLI      -0.485900
     34 O35          4.9600     3.2140    -1.5080 o          1 LLI      -0.584000
     35 H1          -2.1480    -3.1530    -1.1840 hc         1 LLI       0.072700
     36 H2          -2.9690    -1.3350    -2.5510 hc         1 LLI       0.077700
     37 H3          -2.7180    -3.5310     1.0920 hc         1 LLI       0.056700
     38 H4          -3.5270    -2.0050     1.2800 hc         1 LLI       0.056700
     39 H5          -5.1460    -4.0320     0.9980 ha         1 LLI       0.176000
     40 H6          -5.4340    -2.0470    -2.6500 hc         1 LLI       0.062700
     41 H7          -4.2290    -3.2870    -2.8560 hc         1 LLI       0.062700
     42 H8          -6.1730    -3.8760    -1.1630 ha         1 LLI       0.177000
     43 H9          -4.5030     1.8590     0.0180 h1         1 LLI       0.084700
     44 H10         -1.6060     2.5620    -0.6100 hc         1 LLI       0.046950
     45 H11         -2.8580     2.4110    -1.8280 hc         1 LLI       0.046950
     46 H12         -3.1530     0.8790     2.0920 hc         1 LLI       0.046950
     47 H13         -1.9660     2.0790     1.6560 hc         1 LLI       0.046950
     48 H14         -2.3980     4.7340    -1.2770 hc         1 LLI       0.038200
     49 H15         -4.0680     4.3150    -0.9960 hc         1 LLI       0.038200
     50 H16         -4.8120     2.4320     2.6450 hc         1 LLI       0.038200
     51 H17         -3.3260     3.0330     3.3330 hc         1 LLI       0.038200
     52 H18         -5.0150     4.1810     1.1210 hc         1 LLI       0.037950
     53 H19         -4.2830     4.9610     2.4920 hc         1 LLI       0.037950
     54 H20         -1.9910     4.5180     1.2360 hc         1 LLI       0.037950
     55 H21         -3.0440     5.8130     0.7230 hc         1 LLI       0.037950
     56 H22          2.4280     1.4010    -0.2780 h1         1 LLI       0.047200
     57 H23          2.0490     1.6260     1.4390 h1         1 LLI       0.047200
     58 H24          3.9330     3.0220     0.7980 h1         1 LLI       0.064200
     59 H25          4.4600     1.8230     1.9680 h1         1 LLI       0.064200
     60 H26          0.4520     0.3450     0.3030 ha         1 LLI       0.141000
     61 H27          1.7690    -4.4080     0.4300 ha         1 LLI       0.120000
     62 H28         -0.4960    -3.8040    -0.1580 ha         1 LLI       0.115000
     63 H29          5.2130    -3.9170     1.3970 h1         1 LLI       0.040700
     64 H30          3.6140    -4.5350     1.8470 h1         1 LLI       0.040700
     65 H31          4.0920    -4.4590     0.1360 h1         1 LLI       0.040700
     66 H32          6.7590     0.8640     1.2030 h1         1 LLI       0.059700
     67 H33          5.6650    -0.4280     0.6880 h1         1 LLI       0.059700
     68 H34          7.9640     0.1790    -0.7500 h1         1 LLI       0.049700
     69 H35          6.5010    -0.4270    -1.5420 h1         1 LLI       0.049700
     70 H36          6.9220     1.8290    -2.4920 hn         1 LLI       0.319500
     71 O20         -5.2110     0.0730    -1.2920 o          1 LLI      -0.532000
@<TRIPOS>BOND
     1     1     2 ar  
     2     1     3 1   
     3     1    20 ar  
     4     2    21 ar  
     5     2    24 1   
     6     3    18 1   
     7     4     5 1   
     8     4     7 1   
     9     4    26 1   
    10     4    35 1   
    11     5     6 1   
    12     5     9 1   
    13     5    36 1   
    14     6    28 1   
    15     6    71 2   
    16     7     8 1   
    17     7    37 1   
    18     7    38 1   
    19     8    10 2   
    20     8    39 1   
    21     9    10 1   
    22     9    40 1   
    23     9    41 1   
    24    10    42 1   
    25    11    12 1   
    26    11    13 1   
    27    11    28 1   
    28    11    43 1   
    29    12    14 1   
    30    12    44 1   
    31    12    45 1   
    32    13    15 1   
    33    13    46 1   
    34    13    47 1   
    35    14    17 1   
    36    14    48 1   
    37    14    49 1   
    38    15    16 1   
    39    15    50 1   
    40    15    51 1   
    41    16    17 1   
    42    16    52 1   
    43    16    53 1   
    44    17    54 1   
    45    17    55 1   
    46    18    19 1   
    47    18    56 1   
    48    18    57 1   
    49    19    29 1   
    50    19    58 1   
    51    19    59 1   
    52    20    22 ar  
    53    20    60 1   
    54    21    23 ar  
    55    21    61 1   
    56    22    23 ar  
    57    22    26 1   
    58    23    62 1   
    59    24    25 1   
    60    25    63 1   
    61    25    64 1   
    62    25    65 1   
    63    26    27 2   
    64    27    28 1   
    65    29    30 1   
    66    29    31 1   
    67    30    32 1   
    68    30    66 1   
    69    30    67 1   
    70    31    33 1   
    71    31    34 2   
    72    32    33 1   
    73    32    68 1   
    74    32    69 1   
    75    33    70 1   
@<TRIPOS>SUBSTRUCTURE
     1 LLI         1 TEMP              0 ****  ****    0 ROOT
