@<TRIPOS>MOLECULE
LLJ
   82    86     1     0     0
SMALL
No Charge or Current Charge


@<TRIPOS>ATOM
      1 C1           6.1380    -2.5560    -1.2800 ca         1 LLJ      -0.091500
      2 N1          -1.8600    -3.1150     0.1370 ny         1 LLJ      -0.820250
      3 O1           1.0540    -5.4820     0.6640 os         1 LLJ      -0.399500
      4 C2           5.6680    -2.7030     0.0380 ca         1 LLJ      -0.162800
      5 N2           4.8260    -5.0090     0.3170 ny         1 LLJ      -0.820250
      6 O2          -1.0480     5.4760     0.6840 os         1 LLJ      -0.399500
      7 C3           5.9480    -1.3440    -1.9680 ca         1 LLJ      -0.056250
      8 N3          -4.8200     5.0040     0.3250 ny         1 LLJ      -0.820250
      9 C4           5.2900    -0.2700    -1.3390 ca         1 LLJ       0.006000
     10 N4           1.8670     3.1110     0.1540 ny         1 LLJ      -0.820250
     11 C5           4.8160    -0.4150    -0.0170 ca         1 LLJ      -0.063000
     12 C6           5.0040    -1.6320     0.6660 ca         1 LLJ      -0.050000
     13 C7           5.1090     0.9500    -2.0170 ca         1 LLJ      -0.056250
     14 C8           4.4640     2.0230    -1.3790 ca         1 LLJ      -0.091500
     15 C9           3.9900     1.8830    -0.0610 ca         1 LLJ      -0.162800
     16 C10          4.1640     0.6610     0.6160 ca         1 LLJ      -0.050000
     17 C11         -3.3030    -3.0510     0.6090 c3         1 LLJ       0.158400
     18 C12         -4.9980     1.6260     0.6600 ca         1 LLJ      -0.050000
     19 C13         -5.6600     2.7000     0.0350 ca         1 LLJ      -0.162800
     20 C14         -6.1270     2.5580    -1.2850 ca         1 LLJ      -0.091500
     21 C15         -5.9350     1.3490    -1.9770 ca         1 LLJ      -0.056250
     22 C16         -5.2790     0.2730    -1.3510 ca         1 LLJ       0.006000
     23 C17         -4.8080     0.4120    -0.0270 ca         1 LLJ      -0.063000
     24 C18         -5.0970    -0.9440    -2.0340 ca         1 LLJ      -0.056250
     25 C19         -4.4540    -2.0210    -1.3980 ca         1 LLJ      -0.091500
     26 C20         -3.9830    -1.8860    -0.0790 ca         1 LLJ      -0.162800
     27 C21         -4.1590    -0.6660     0.6030 ca         1 LLJ      -0.050000
     28 C22         -1.0160    -4.2820     0.6760 c3         1 LLJ       0.064850
     29 C23          0.4160    -4.3160     0.1100 c3         1 LLJ       0.135850
     30 C24          2.3800    -5.7770     0.1790 c3         1 LLJ       0.135850
     31 C25          3.3690    -4.7130     0.7090 c3         1 LLJ       0.064850
     32 C26          5.8780    -4.0080     0.7810 c3         1 LLJ       0.158400
     33 C27         -5.8720     4.0020     0.7830 c3         1 LLJ       0.158400
     34 C28         -3.3630     4.7080     0.7200 c3         1 LLJ       0.064850
     35 C29         -2.3730     5.7730     0.1970 c3         1 LLJ       0.135850
     36 C30         -0.4090     4.3120     0.1260 c3         1 LLJ       0.135850
     37 C31          1.0220     4.2760     0.6960 c3         1 LLJ       0.064850
     38 C32          3.3090     3.0450     0.6290 c3         1 LLJ       0.158400
     39 H1           6.6550    -3.3760    -1.7750 ha         1 LLJ       0.140000
     40 H3N2         5.0960    -5.9580     0.6580 hn         1 LLJ       0.505625
     41 H4N2         4.9030    -5.1120    -0.7180 hn         1 LLJ       0.505625
     42 H3           6.3180    -1.2410    -2.9860 ha         1 LLJ       0.163750
     43 H6           4.6410    -1.7440     1.6850 ha         1 LLJ       0.123000
     44 H17          5.4740     1.0700    -3.0350 ha         1 LLJ       0.163750
     45 HN1A        -1.4000    -2.2050     0.3560 hn         1 LLJ       0.505625
     46 H18          4.3410     2.9660    -1.9110 ha         1 LLJ       0.140000
     47 H10          3.8020     0.5510     1.6360 ha         1 LLJ       0.123000
     48 H111        -3.8080    -3.9910     0.3620 hx         1 LLJ       0.121950
     49 H211        -3.3270    -2.9330     1.6970 hx         1 LLJ       0.121950
     50 H12         -4.6380     1.7340     1.6810 ha         1 LLJ       0.123000
     51 H14         -6.6430     3.3800    -1.7770 ha         1 LLJ       0.140000
     52 H15         -6.3030     1.2500    -2.9960 ha         1 LLJ       0.163750
     53 H18A        -5.4590    -1.0610    -3.0530 ha         1 LLJ       0.163750
     54 H19         -4.3290    -2.9610    -1.9330 ha         1 LLJ       0.140000
     55 H21         -3.7990    -0.5600     1.6250 ha         1 LLJ       0.123000
     56 H122        -0.9620    -4.2140     1.7670 hx         1 LLJ       0.115950
     57 H222        -1.5110    -5.2240     0.4240 hx         1 LLJ       0.115950
     58 H123         0.9440    -3.3960     0.3930 h1         1 LLJ       0.068450
     59 H223         0.3750    -4.3760    -0.9860 h1         1 LLJ       0.068450
     60 H124         2.6940    -6.7640     0.5400 h1         1 LLJ       0.068450
     61 H224         2.4020    -5.7980    -0.9190 h1         1 LLJ       0.068450
     62 H125         3.2930    -4.6740     1.7990 hx         1 LLJ       0.115950
     63 H225         3.0910    -3.7320     0.3140 hx         1 LLJ       0.115950
     64 H126         6.8790    -4.4030     0.5770 hx         1 LLJ       0.121950
     65 H226         5.7890    -3.8620     1.8630 hx         1 LLJ       0.121950
     66 H127        -5.7860     3.8510     1.8640 hx         1 LLJ       0.121950
     67 H227        -6.8730     4.3980     0.5780 hx         1 LLJ       0.121950
     68 H128        -3.2900     4.6640     1.8100 hx         1 LLJ       0.115950
     69 H228        -3.0850     3.7280     0.3210 hx         1 LLJ       0.115950
     70 HN3         -4.8930     5.1120    -0.7090 hn         1 LLJ       0.505625
     71 H129        -2.6880     6.7590     0.5610 h1         1 LLJ       0.068450
     72 H229        -2.3920     5.7990    -0.9010 h1         1 LLJ       0.068450
     73 HN3A        -5.0910     5.9530     0.6700 hn         1 LLJ       0.505625
     74 H130        -0.9380     3.3910     0.4050 h1         1 LLJ       0.068450
     75 H230        -0.3650     4.3770    -0.9690 h1         1 LLJ       0.068450
     76 H131         0.9660     4.2040     1.7870 hx         1 LLJ       0.115950
     77 H231         1.5170     5.2200     0.4480 hx         1 LLJ       0.115950
     78 H132         3.8140     3.9860     0.3880 hx         1 LLJ       0.121950
     79 H232         3.3300     2.9230     1.7170 hx         1 LLJ       0.121950
     80 HN4          1.4060     2.2000     0.3680 hn         1 LLJ       0.505625
     81 HN4A         1.8640     3.1230    -0.8880 hn         1 LLJ       0.505625
     82 HN1         -1.8550    -3.1220    -0.9060 hn         1 LLJ       0.505625
@<TRIPOS>BOND
     1     1     4 ar  
     2     1     7 ar  
     3     1    39 1   
     4     2    17 1   
     5     2    28 1   
     6     2    45 1   
     7     2    82 1   
     8     3    29 1   
     9     3    30 1   
    10     4    12 ar  
    11     4    32 1   
    12     5    31 1   
    13     5    32 1   
    14     5    40 1   
    15     5    41 1   
    16     6    35 1   
    17     6    36 1   
    18     7     9 ar  
    19     7    42 1   
    20     8    33 1   
    21     8    34 1   
    22     8    70 1   
    23     8    73 1   
    24     9    11 ar  
    25     9    13 ar  
    26    10    37 1   
    27    10    38 1   
    28    10    80 1   
    29    10    81 1   
    30    11    12 ar  
    31    11    16 ar  
    32    12    43 1   
    33    13    14 ar  
    34    13    44 1   
    35    14    15 ar  
    36    14    46 1   
    37    15    16 ar  
    38    15    38 1   
    39    16    47 1   
    40    17    26 1   
    41    17    48 1   
    42    17    49 1   
    43    18    19 ar  
    44    18    23 ar  
    45    18    50 1   
    46    19    20 ar  
    47    19    33 1   
    48    20    21 ar  
    49    20    51 1   
    50    21    22 ar  
    51    21    52 1   
    52    22    23 ar  
    53    22    24 ar  
    54    23    27 ar  
    55    24    25 ar  
    56    24    53 1   
    57    25    26 ar  
    58    25    54 1   
    59    26    27 ar  
    60    27    55 1   
    61    28    29 1   
    62    28    56 1   
    63    28    57 1   
    64    29    58 1   
    65    29    59 1   
    66    30    31 1   
    67    30    60 1   
    68    30    61 1   
    69    31    62 1   
    70    31    63 1   
    71    32    64 1   
    72    32    65 1   
    73    33    66 1   
    74    33    67 1   
    75    34    35 1   
    76    34    68 1   
    77    34    69 1   
    78    35    71 1   
    79    35    72 1   
    80    36    37 1   
    81    36    74 1   
    82    36    75 1   
    83    37    76 1   
    84    37    77 1   
    85    38    78 1   
    86    38    79 1   
@<TRIPOS>SUBSTRUCTURE
     1 LLJ         1 TEMP              0 ****  ****    0 ROOT
