@<TRIPOS>MOLECULE
LLJ
   82    86     1     0     0
SMALL
bcc


@<TRIPOS>ATOM
      1 C1           5.9830    -2.4820    -1.2580 ca         1 LLJ      -0.109500
      2 N1          -1.8410    -3.2850    -0.0190 ny         1 LLJ      -0.766250
      3 O1           1.0160    -5.4490     0.7150 os         1 LLJ      -0.353100
      4 C2           5.4980    -2.6270     0.0620 ca         1 LLJ      -0.162800
      5 N2           4.6690    -4.9480     0.3460 ny         1 LLJ      -0.766250
      6 O2          -1.0060     5.4430     0.7420 os         1 LLJ      -0.353100
      7 C3           5.8380    -1.2990    -1.9280 ca         1 LLJ      -0.074250
      8 N3          -4.6580     4.9440     0.3440 ny         1 LLJ      -0.766250
      9 C4           5.2000    -0.1980    -1.3120 ca         1 LLJ       0.006000
     10 N4           1.8430     3.2570     0.0450 ny         1 LLJ      -0.766250
     11 C5           4.7080    -0.3400     0.0080 ca         1 LLJ      -0.063000
     12 C6           4.8770    -1.5730     0.6780 ca         1 LLJ      -0.068000
     13 C7           5.0480     1.0460    -1.9680 ca         1 LLJ      -0.074250
     14 C8           4.4310     2.0910    -1.3420 ca         1 LLJ      -0.109500
     15 C9           3.9200     1.9470    -0.0300 ca         1 LLJ      -0.162800
     16 C10          4.0600     0.7540     0.6260 ca         1 LLJ      -0.068000
     17 C11         -3.1900    -3.0830     0.5950 c3         1 LLJ       0.186600
     18 C12         -4.8650     1.5760     0.6620 ca         1 LLJ      -0.068000
     19 C13         -5.4970     2.6290     0.0550 ca         1 LLJ      -0.162800
     20 C14         -5.9920     2.4840    -1.2620 ca         1 LLJ      -0.109500
     21 C15         -5.8480     1.3030    -1.9350 ca         1 LLJ      -0.074250
     22 C16         -5.2000     0.2030    -1.3270 ca         1 LLJ       0.006000
     23 C17         -4.6960     0.3460    -0.0110 ca         1 LLJ      -0.063000
     24 C18         -5.0500    -1.0390    -1.9850 ca         1 LLJ      -0.074250
     25 C19         -4.4250    -2.0840    -1.3660 ca         1 LLJ      -0.109500
     26 C20         -3.9000    -1.9390    -0.0600 ca         1 LLJ      -0.162800
     27 C21         -4.0370    -0.7460     0.5980 ca         1 LLJ      -0.068000
     28 C22         -1.0280    -4.3220     0.6670 c3         1 LLJ       0.093050
     29 C23          0.3010    -4.5050    -0.0420 c3         1 LLJ       0.112650
     30 C24          2.3160    -5.7080     0.2550 c3         1 LLJ       0.112650
     31 C25          3.2750    -4.6270     0.7400 c3         1 LLJ       0.093050
     32 C26          5.6840    -3.9300     0.7750 c3         1 LLJ       0.186600
     33 C27         -5.6800     3.9320     0.7700 c3         1 LLJ       0.186600
     34 C28         -3.2700     4.6260     0.7620 c3         1 LLJ       0.093050
     35 C29         -2.3030     5.7000     0.2740 c3         1 LLJ       0.112650
     36 C30         -0.3000     4.4700     0.0130 c3         1 LLJ       0.112650
     37 C31          1.0490     4.3300     0.6950 c3         1 LLJ       0.093050
     38 C32          3.2140     3.0930     0.6250 c3         1 LLJ       0.186600
     39 H1           6.4870    -3.3120    -1.7380 ha         1 LLJ       0.158000
     40 H3N2         4.9410    -5.8460     0.7500 hn         1 LLJ       0.450425
     41 H4N2         4.7290    -5.0790    -0.6660 hn         1 LLJ       0.450425
     42 H3           6.2210    -1.1920    -2.9350 ha         1 LLJ       0.181750
     43 H6           4.5090    -1.6720     1.6930 ha         1 LLJ       0.141000
     44 H17          5.4340     1.1660    -2.9730 ha         1 LLJ       0.181750
     45 HN1A        -1.3370    -2.3960    -0.0150 hn         1 LLJ       0.450425
     46 H18          4.3390     3.0420    -1.8530 ha         1 LLJ       0.158000
     47 H10          3.6780     0.6340     1.6330 ha         1 LLJ       0.141000
     48 H111        -3.7280    -4.0230     0.4800 hx         1 LLJ       0.121950
     49 H211        -3.0280    -2.8990     1.6550 hx         1 LLJ       0.121950
     50 H12         -4.4910     1.6750     1.6750 ha         1 LLJ       0.141000
     51 H14         -6.5030     3.3130    -1.7360 ha         1 LLJ       0.158000
     52 H15         -6.2400     1.1960    -2.9390 ha         1 LLJ       0.181750
     53 H18A        -5.4450    -1.1600    -2.9860 ha         1 LLJ       0.181750
     54 H19         -4.3380    -3.0350    -1.8790 ha         1 LLJ       0.158000
     55 H21         -3.6450    -0.6260     1.6020 ha         1 LLJ       0.141000
     56 H122        -0.8810    -3.9870     1.6920 hx         1 LLJ       0.115950
     57 H222        -1.6090    -5.2420     0.6690 hx         1 LLJ       0.115950
     58 H123         0.8230    -3.5420    -0.1010 h1         1 LLJ       0.068450
     59 H223         0.1450    -4.8580    -1.0690 h1         1 LLJ       0.068450
     60 H124         2.6110    -6.6760     0.6660 h1         1 LLJ       0.068450
     61 H224         2.3500    -5.7880    -0.8390 h1         1 LLJ       0.068450
     62 H125         3.2560    -4.5550     1.8260 hx         1 LLJ       0.115950
     63 H225         3.0360    -3.6540     0.3160 hx         1 LLJ       0.115950
     64 H126         6.6570    -4.3680     0.5580 hx         1 LLJ       0.121950
     65 H226         5.5860    -3.8280     1.8540 hx         1 LLJ       0.121950
     66 H127        -5.5850     3.8280     1.8480 hx         1 LLJ       0.121950
     67 H227        -6.6500     4.3750     0.5490 hx         1 LLJ       0.121950
     68 H128        -3.2660     4.5690     1.8500 hx         1 LLJ       0.115950
     69 H228        -3.0280     3.6470     0.3540 hx         1 LLJ       0.115950
     70 HN3         -4.7020     5.0620    -0.6700 hn         1 LLJ       0.450425
     71 H129        -2.5970     6.6720     0.6740 h1         1 LLJ       0.068450
     72 H229        -2.3310     5.7690    -0.8210 h1         1 LLJ       0.068450
     73 HN3A        -4.9340     5.8490     0.7300 hn         1 LLJ       0.450425
     74 H130        -0.8140     3.5020     0.0110 h1         1 LLJ       0.068450
     75 H230        -0.1710     4.7780    -1.0320 h1         1 LLJ       0.068450
     76 H131         0.9300     4.0530     1.7410 hx         1 LLJ       0.115950
     77 H231         1.6270     5.2500     0.6280 hx         1 LLJ       0.115950
     78 H132         3.7310     4.0380     0.4690 hx         1 LLJ       0.121950
     79 H232         3.0860     2.9320     1.6930 hx         1 LLJ       0.121950
     80 HN4          1.3440     2.3690     0.1200 hn         1 LLJ       0.450425
     81 HN4A         1.9230     3.4460    -0.9560 hn         1 LLJ       0.450425
     82 HN1         -1.9540    -3.5320    -1.0040 hn         1 LLJ       0.450425
@<TRIPOS>BOND
     1     1     4 ar  
     2     1     7 ar  
     3     1    39 1   
     4     2    17 1   
     5     2    28 1   
     6     2    45 1   
     7     2    82 1   
     8     3    29 1   
     9     3    30 1   
    10     4    12 ar  
    11     4    32 1   
    12     5    31 1   
    13     5    32 1   
    14     5    40 1   
    15     5    41 1   
    16     6    35 1   
    17     6    36 1   
    18     7     9 ar  
    19     7    42 1   
    20     8    33 1   
    21     8    34 1   
    22     8    70 1   
    23     8    73 1   
    24     9    11 ar  
    25     9    13 ar  
    26    10    37 1   
    27    10    38 1   
    28    10    80 1   
    29    10    81 1   
    30    11    12 ar  
    31    11    16 ar  
    32    12    43 1   
    33    13    14 ar  
    34    13    44 1   
    35    14    15 ar  
    36    14    46 1   
    37    15    16 ar  
    38    15    38 1   
    39    16    47 1   
    40    17    26 1   
    41    17    48 1   
    42    17    49 1   
    43    18    19 ar  
    44    18    23 ar  
    45    18    50 1   
    46    19    20 ar  
    47    19    33 1   
    48    20    21 ar  
    49    20    51 1   
    50    21    22 ar  
    51    21    52 1   
    52    22    23 ar  
    53    22    24 ar  
    54    23    27 ar  
    55    24    25 ar  
    56    24    53 1   
    57    25    26 ar  
    58    25    54 1   
    59    26    27 ar  
    60    27    55 1   
    61    28    29 1   
    62    28    56 1   
    63    28    57 1   
    64    29    58 1   
    65    29    59 1   
    66    30    31 1   
    67    30    60 1   
    68    30    61 1   
    69    31    62 1   
    70    31    63 1   
    71    32    64 1   
    72    32    65 1   
    73    33    66 1   
    74    33    67 1   
    75    34    35 1   
    76    34    68 1   
    77    34    69 1   
    78    35    71 1   
    79    35    72 1   
    80    36    37 1   
    81    36    74 1   
    82    36    75 1   
    83    37    76 1   
    84    37    77 1   
    85    38    78 1   
    86    38    79 1   
@<TRIPOS>SUBSTRUCTURE
     1 LLJ         1 TEMP              0 ****  ****    0 ROOT
