@<TRIPOS>MOLECULE
LLK
   31    32     1     0     0
SMALL
bcc


@<TRIPOS>ATOM
      1 C1          -1.9380    -1.5450    -0.0170 ca         1 LLK      -0.067000
      2 O1           3.1290    -1.7530     0.4720 o          1 LLK      -0.541100
      3 C2          -3.2430    -1.1380    -0.0470 ca         1 LLK      -0.204000
      4 C3          -3.5570     0.2430    -0.0110 ca         1 LLK       0.155100
      5 O3          -4.8140     0.7130    -0.0340 os         1 LLK      -0.318900
      6 C4          -2.5440     1.1750     0.0520 ca         1 LLK      -0.179000
      7 C5          -1.1980     0.7710     0.0830 ca         1 LLK       0.022000
      8 C6          -0.8790    -0.6130     0.0500 ca         1 LLK      -0.090000
      9 C7           0.4690    -1.0170     0.0910 ca         1 LLK      -0.038000
     10 C8           1.4920    -0.0970     0.1410 ca         1 LLK      -0.180600
     11 C9           1.1660     1.2840     0.1680 ca         1 LLK      -0.085000
     12 C10         -0.1330     1.7030     0.1480 ca         1 LLK      -0.139000
     13 C11          2.8950    -0.5890     0.1890 c          1 LLK       0.587900
     14 C12          3.9800     0.3600    -0.1290 ce         1 LLK      -0.268200
     15 C13          5.2640     0.0580     0.0780 c2         1 LLK      -0.082200
     16 C14          6.4050     0.9590    -0.2260 c3         1 LLK      -0.074900
     17 C31         -5.8960    -0.1990    -0.0850 c3         1 LLK       0.127700
     18 H1          -1.7100    -2.6030    -0.0430 ha         1 LLK       0.135000
     19 H2          -4.0220    -1.8850    -0.0970 ha         1 LLK       0.136000
     20 H4          -2.7860     2.2310     0.0790 ha         1 LLK       0.148000
     21 H7           0.6920    -2.0770     0.0720 ha         1 LLK       0.149000
     22 H9           1.9470     2.0300     0.2290 ha         1 LLK       0.132000
     23 H10         -0.3580     2.7620     0.1840 ha         1 LLK       0.135000
     24 H12          3.7230     1.3240    -0.5520 ha         1 LLK       0.133000
     25 H31         -6.8010     0.4030    -0.0910 h1         1 LLK       0.042033
     26 H31A        -5.8760    -0.8080    -0.9920 h1         1 LLK       0.042033
     27 H31B        -5.9190    -0.8570     0.7870 h1         1 LLK       0.042033
     28 H14          7.1140     0.4640    -0.8930 hc         1 LLK       0.048367
     29 H14A         6.0860     1.8930    -0.6870 hc         1 LLK       0.048367
     30 H14B         6.9570     1.1920     0.6880 hc         1 LLK       0.048367
     31 H13          5.5150    -0.9080     0.5070 ha         1 LLK       0.138000
@<TRIPOS>BOND
     1     1     3 ar  
     2     1     8 ar  
     3     1    18 1   
     4     2    13 2   
     5     3     4 ar  
     6     3    19 1   
     7     4     5 1   
     8     4     6 ar  
     9     5    17 1   
    10     6     7 ar  
    11     6    20 1   
    12     7     8 ar  
    13     7    12 ar  
    14     8     9 ar  
    15     9    10 ar  
    16     9    21 1   
    17    10    11 ar  
    18    10    13 1   
    19    11    12 ar  
    20    11    22 1   
    21    12    23 1   
    22    13    14 1   
    23    14    15 2   
    24    14    24 1   
    25    15    16 1   
    26    15    31 1   
    27    16    28 1   
    28    16    29 1   
    29    16    30 1   
    30    17    25 1   
    31    17    26 1   
    32    17    27 1   
@<TRIPOS>SUBSTRUCTURE
     1 LLK         1 TEMP              0 ****  ****    0 ROOT
