@<TRIPOS>MOLECULE
LLK
   31    32     1     0     0
SMALL
No Charge or Current Charge


@<TRIPOS>ATOM
      1 C1          -1.9510    -1.5850     0.0370 ca         1 LLK      -0.049000
      2 O1           3.1800    -1.8300     0.4160 o          1 LLK      -0.541100
      3 C2          -3.2840    -1.1380     0.0210 ca         1 LLK      -0.186000
      4 C3          -3.5670     0.2450    -0.0080 ca         1 LLK       0.155100
      5 O3          -4.8550     0.7410    -0.0240 os         1 LLK      -0.342100
      6 C4          -2.5100     1.1680    -0.0200 ca         1 LLK      -0.161000
      7 C5          -1.1750     0.7240    -0.0050 ca         1 LLK       0.022000
      8 C6          -0.8930    -0.6560     0.0240 ca         1 LLK      -0.090000
      9 C7           0.4430    -1.1000     0.0400 ca         1 LLK      -0.020000
     10 C8           1.5130    -0.1760     0.0200 ca         1 LLK      -0.180600
     11 C9           1.2150     1.2070    -0.0000 ca         1 LLK      -0.067000
     12 C10         -0.1180     1.6500    -0.0150 ca         1 LLK      -0.121000
     13 C11          2.9370    -0.6900     0.0400 c          1 LLK       0.587900
     14 C12          4.0610     0.2420    -0.2860 ce         1 LLK      -0.318200
     15 C13          5.3110     0.1270     0.2230 c2         1 LLK      -0.132200
     16 C14          6.4470     1.0890    -0.0430 c3         1 LLK      -0.074900
     17 C31         -6.0080    -0.1200    -0.0130 c3         1 LLK       0.150900
     18 H1          -1.7430    -2.6530     0.0600 ha         1 LLK       0.117000
     19 H2          -4.0800    -1.8770     0.0320 ha         1 LLK       0.118000
     20 H4          -2.7310     2.2320    -0.0420 ha         1 LLK       0.130000
     21 H7           0.6480    -2.1690     0.0610 ha         1 LLK       0.131000
     22 H9           2.0050     1.9530     0.0150 ha         1 LLK       0.114000
     23 H10         -0.3280     2.7170    -0.0280 ha         1 LLK       0.117000
     24 H12          3.8070     1.1010    -0.9020 ha         1 LLK       0.183000
     25 H31         -6.9280     0.4780    -0.0300 h1         1 LLK       0.042033
     26 H31A        -6.0140    -0.7760    -0.8930 h1         1 LLK       0.042033
     27 H31B        -6.0230    -0.7410     0.8910 h1         1 LLK       0.042033
     28 H14          6.6680     1.1510    -1.1160 hc         1 LLK       0.048367
     29 H14A         6.1990     2.0980     0.3080 hc         1 LLK       0.048367
     30 H14B         7.3630     0.7720     0.4690 hc         1 LLK       0.048367
     31 H13          5.5720    -0.7070     0.8810 ha         1 LLK       0.188000
@<TRIPOS>BOND
     1     1     3 ar  
     2     1     8 ar  
     3     1    18 1   
     4     2    13 2   
     5     3     4 ar  
     6     3    19 1   
     7     4     5 1   
     8     4     6 ar  
     9     5    17 1   
    10     6     7 ar  
    11     6    20 1   
    12     7     8 ar  
    13     7    12 ar  
    14     8     9 ar  
    15     9    10 ar  
    16     9    21 1   
    17    10    11 ar  
    18    10    13 1   
    19    11    12 ar  
    20    11    22 1   
    21    12    23 1   
    22    13    14 1   
    23    14    15 2   
    24    14    24 1   
    25    15    16 1   
    26    15    31 1   
    27    16    28 1   
    28    16    29 1   
    29    16    30 1   
    30    17    25 1   
    31    17    26 1   
    32    17    27 1   
@<TRIPOS>SUBSTRUCTURE
     1 LLK         1 TEMP              0 ****  ****    0 ROOT
