@<TRIPOS>MOLECULE
LLL
   70    72     1     0     0
SMALL
No Charge or Current Charge


@<TRIPOS>ATOM
      1 C11         -3.8370     1.3490    -0.1290 c6         1 LLL       0.393300
      2 O11         -3.2830     0.5650     0.9610 os         1 LLL      -0.496000
      3 C21         -5.0710     2.2090     0.3560 c6         1 LLL       0.136500
      4 N21         -4.7760     3.0790     1.5320 n8         1 LLL      -0.980200
      5 C31         -6.2840     1.3000     0.6860 c6         1 LLL      -0.111400
      6 C41         -6.5850     0.3450    -0.4940 c6         1 LLL      -0.102400
      7 C51         -5.3140    -0.4510    -0.8880 c6         1 LLL       0.161300
      8 O51         -4.2400     0.4690    -1.2090 os         1 LLL      -0.453000
      9 C61         -5.5660    -1.3810    -2.1260 c3         1 LLL       0.162800
     10 N61         -4.4220    -2.2410    -2.5300 n8         1 LLL      -0.991200
     11 C12          0.6680    -1.2120     1.5330 c6         1 LLL       0.150500
     12 N12          1.8980    -2.0230     1.3240 n8         1 LLL      -0.995200
     13 C22         -0.5760    -2.1290     1.5190 c6         1 LLL      -0.117400
     14 C32         -1.8720    -1.3070     1.7440 c6         1 LLL       0.167500
     15 N32         -3.0420    -2.2150     1.7640 n8         1 LLL      -0.995200
     16 C42         -2.0370    -0.1480     0.6930 c6         1 LLL       0.187300
     17 C52         -0.7590     0.7700     0.7310 c6         1 LLL       0.134300
     18 O52         -0.7950     1.8810    -0.1890 oh         1 LLL      -0.717000
     19 C62          0.5120    -0.0890     0.4650 c6         1 LLL       0.158300
     20 O62          1.7000     0.7400     0.3990 os         1 LLL      -0.510000
     21 C13          2.2770     0.9150    -0.9160 c6         1 LLL       0.349300
     22 C23          3.3170    -0.2060    -1.2790 c6         1 LLL       0.173300
     23 O23          2.7420    -1.5400    -1.1830 oh         1 LLL      -0.733000
     24 C33          4.6140    -0.0540    -0.3960 c6         1 LLL       0.175500
     25 N33          5.6670    -1.0320    -0.8120 n7         1 LLL      -0.868400
     26 C43          5.1540     1.4340    -0.4530 c6         1 LLL       0.124000
     27 O43          5.6180     1.7370    -1.7850 oh         1 LLL      -0.710000
     28 C53          3.9880     2.3970    -0.0710 c6         1 LLL       0.133600
     29 O53          2.8740     2.2250    -0.9740 os         1 LLL      -0.451000
     30 C83          6.3520     1.6720     0.5090 c3         1 LLL      -0.125100
     31 C93          6.4010    -1.7520     0.2460 c3         1 LLL       0.162100
     32 H11         -3.0870     2.0550    -0.5080 h2         1 LLL       0.107700
     33 H21         -5.3650     2.8710    -0.4730 h1         1 LLL       0.071700
     34 H211        -5.6580     3.3030     2.0050 hn         1 LLL       0.396500
     35 H212        -4.2730     2.5050     2.2200 hn         1 LLL       0.396500
     36 H311        -7.1720     1.9110     0.9030 hc         1 LLL       0.042200
     37 H312        -6.0780     0.7090     1.5890 hc         1 LLL       0.042200
     38 H411        -6.9470     0.9200    -1.3580 hc         1 LLL       0.049200
     39 H412        -7.3910    -0.3480    -0.2160 hc         1 LLL       0.049200
     40 H51         -5.0070    -1.0840    -0.0430 h1         1 LLL       0.040700
     41 H611        -6.4130    -2.0390    -1.8890 h1         1 LLL       0.031700
     42 H612        -5.8560    -0.7600    -2.9850 h1         1 LLL       0.031700
     43 H11A        -4.1650    -2.8460    -1.7420 hn         1 LLL       0.397500
     44 H12A        -4.7360    -2.9000    -3.2520 hn         1 LLL       0.397500
     45 H121         2.6240    -1.6600     1.9580 hn         1 LLL       0.405000
     46 H122         1.7310    -2.9650     1.7030 hn         1 LLL       0.405000
     47 H221        -0.6360    -2.6630     0.5600 hc         1 LLL       0.053700
     48 H222        -0.4830    -2.8940     2.3020 hc         1 LLL       0.053700
     49 H32         -1.8230    -0.8440     2.7420 h1         1 LLL       0.024700
     50 H321        -3.0800    -2.6870     2.6740 hn         1 LLL       0.398500
     51 H322        -3.8800    -1.6220     1.7630 hn         1 LLL       0.398500
     52 H42         -2.1050    -0.6120    -0.3030 h1         1 LLL       0.084700
     53 H52         -0.6760     1.1660     1.7540 h1         1 LLL       0.044700
     54 H3           0.1010     2.2920    -0.1350 ho         1 LLL       0.524000
     55 H62          0.3720    -0.5870    -0.5060 h1         1 LLL       0.056700
     56 H13          1.4730     0.8850    -1.6680 h2         1 LLL       0.082700
     57 H23          3.6150    -0.0230    -2.3220 h1         1 LLL       0.095700
     58 H2           2.4440    -1.6590    -0.2270 ho         1 LLL       0.541000
     59 H1           4.3200    -0.2680     0.6440 h1         1 LLL       0.057700
     60 H33          6.3350    -0.5120    -1.3970 hn         1 LLL       0.430000
     61 H43          4.8980     2.2520    -2.2180 ho         1 LLL       0.501000
     62 H531         4.3290     3.4400    -0.1290 h1         1 LLL       0.052200
     63 H532         3.6620     2.2140     0.9630 h1         1 LLL       0.052200
     64 H831         6.1050     1.3690     1.5340 hc         1 LLL       0.044367
     65 H832         7.2430     1.1140     0.1980 hc         1 LLL       0.044367
     66 H833         6.6330     2.7320     0.5380 hc         1 LLL       0.044367
     67 H931         7.1320    -2.4420    -0.1950 h1         1 LLL       0.023367
     68 H932         6.9420    -1.0590     0.9030 h1         1 LLL       0.023367
     69 H933         5.7100    -2.3390     0.8660 h1         1 LLL       0.023367
     70 H12          0.7410    -0.7500     2.5320 h1         1 LLL       0.069700
@<TRIPOS>BOND
     1     1     2 1   
     2     1     3 1   
     3     1     8 1   
     4     1    32 1   
     5     2    16 1   
     6     3     4 1   
     7     3     5 1   
     8     3    33 1   
     9     4    34 1   
    10     4    35 1   
    11     5     6 1   
    12     5    36 1   
    13     5    37 1   
    14     6     7 1   
    15     6    38 1   
    16     6    39 1   
    17     7     8 1   
    18     7     9 1   
    19     7    40 1   
    20     9    10 1   
    21     9    41 1   
    22     9    42 1   
    23    10    43 1   
    24    10    44 1   
    25    11    12 1   
    26    11    13 1   
    27    11    19 1   
    28    11    70 1   
    29    12    45 1   
    30    12    46 1   
    31    13    14 1   
    32    13    47 1   
    33    13    48 1   
    34    14    15 1   
    35    14    16 1   
    36    14    49 1   
    37    15    50 1   
    38    15    51 1   
    39    16    17 1   
    40    16    52 1   
    41    17    18 1   
    42    17    19 1   
    43    17    53 1   
    44    18    54 1   
    45    19    20 1   
    46    19    55 1   
    47    20    21 1   
    48    21    22 1   
    49    21    29 1   
    50    21    56 1   
    51    22    23 1   
    52    22    24 1   
    53    22    57 1   
    54    23    58 1   
    55    24    25 1   
    56    24    26 1   
    57    24    59 1   
    58    25    31 1   
    59    25    60 1   
    60    26    27 1   
    61    26    28 1   
    62    26    30 1   
    63    27    61 1   
    64    28    29 1   
    65    28    62 1   
    66    28    63 1   
    67    30    64 1   
    68    30    65 1   
    69    30    66 1   
    70    31    67 1   
    71    31    68 1   
    72    31    69 1   
@<TRIPOS>SUBSTRUCTURE
     1 LLL         1 TEMP              0 ****  ****    0 ROOT
