@<TRIPOS>MOLECULE
LLL
   70    72     1     0     0
SMALL
bcc


@<TRIPOS>ATOM
      1 C11         -3.6100     1.2140    -0.4230 c6         1 LLL       0.346900
      2 O11         -2.9210     0.6080     0.6400 os         1 LLL      -0.449600
      3 C21         -4.4700     2.3430     0.1490 c6         1 LLL       0.136500
      4 N21         -3.6350     3.2690     0.8930 n8         1 LLL      -0.869800
      5 C31         -5.6790     1.7860     0.9030 c6         1 LLL      -0.111400
      6 C41         -6.4330     0.7790     0.0370 c6         1 LLL      -0.102400
      7 C51         -5.4640    -0.2910    -0.4300 c6         1 LLL       0.138100
      8 O51         -4.3830     0.2980    -1.1420 os         1 LLL      -0.406600
      9 C61         -6.0890    -1.3500    -1.3150 c3         1 LLL       0.162800
     10 N61         -5.1200    -2.3840    -1.6440 n8         1 LLL      -0.880800
     11 C12          0.5560    -1.8560     0.9260 c6         1 LLL       0.150500
     12 N12          1.5850    -2.8250     0.5630 n8         1 LLL      -0.884800
     13 C22         -0.8380    -2.4540     1.0600 c6         1 LLL      -0.117400
     14 C32         -1.8860    -1.4040     1.4060 c6         1 LLL       0.167500
     15 N32         -3.1800    -2.0490     1.5580 n8         1 LLL      -0.884800
     16 C42         -1.9270    -0.3450     0.3040 c6         1 LLL       0.164100
     17 C52         -0.5510     0.3100     0.1880 c6         1 LLL       0.111100
     18 O52         -0.5860     1.2720    -0.8400 oh         1 LLL      -0.594800
     19 C62          0.5350    -0.7300    -0.0990 c6         1 LLL       0.135100
     20 O62          1.7960    -0.0980    -0.0740 os         1 LLL      -0.463600
     21 C13          2.4770     0.1690    -1.2660 c6         1 LLL       0.302900
     22 C23          3.8550    -0.4940    -1.1940 c6         1 LLL       0.150100
     23 O23          3.7330    -1.8770    -1.0220 oh         1 LLL      -0.610800
     24 C33          4.7220     0.1660    -0.1150 c6         1 LLL       0.175500
     25 N33          6.0470    -0.4330    -0.0990 n7         1 LLL      -0.813200
     26 C43          4.7480     1.6930    -0.3170 c6         1 LLL       0.100800
     27 O43          5.4760     1.9130    -1.5150 oh         1 LLL      -0.587800
     28 C53          3.3220     2.2210    -0.4650 c6         1 LLL       0.110400
     29 O53          2.5790     1.5480    -1.4660 os         1 LLL      -0.404600
     30 C83          5.4110     2.4040     0.8580 c3         1 LLL      -0.125100
     31 C93          6.4960    -0.9130     1.1890 c3         1 LLL       0.162100
     32 H11         -2.9090     1.6310    -1.1490 h2         1 LLL       0.107700
     33 H21         -4.8510     2.8830    -0.7250 h1         1 LLL       0.071700
     34 H211        -4.2020     4.0470     1.2080 hn         1 LLL       0.341300
     35 H212        -3.2910     2.8170     1.7310 hn         1 LLL       0.341300
     36 H311        -6.3310     2.6120     1.1980 hc         1 LLL       0.042200
     37 H312        -5.3480     1.2980     1.8260 hc         1 LLL       0.042200
     38 H411        -6.8830     1.2810    -0.8270 hc         1 LLL       0.049200
     39 H412        -7.2470     0.3210     0.6040 hc         1 LLL       0.049200
     40 H51         -5.0830    -0.8080     0.4580 h1         1 LLL       0.040700
     41 H611        -6.9730    -1.7240    -0.7780 h1         1 LLL       0.031700
     42 H612        -6.4600    -0.8920    -2.2380 h1         1 LLL       0.031700
     43 H11A        -4.6620    -2.6960    -0.7950 hn         1 LLL       0.342300
     44 H12A        -5.5970    -3.1900    -2.0260 hn         1 LLL       0.342300
     45 H121         1.7870    -3.4240     1.3550 hn         1 LLL       0.349800
     46 H122         1.2310    -3.4380    -0.1640 hn         1 LLL       0.349800
     47 H221        -1.1230    -2.9490     0.1240 hc         1 LLL       0.053700
     48 H222        -0.8220    -3.2280     1.8340 hc         1 LLL       0.053700
     49 H32         -1.5640    -0.9030     2.3350 h1         1 LLL       0.024700
     50 H321        -3.0980    -2.7800     2.2560 hn         1 LLL       0.343300
     51 H322        -3.8410    -1.3860     1.9420 hn         1 LLL       0.343300
     52 H42         -2.1850    -0.8430    -0.6400 h1         1 LLL       0.084700
     53 H52         -0.3190     0.7830     1.1550 h1         1 LLL       0.044700
     54 H3           0.2460     1.7600    -0.8390 ho         1 LLL       0.425000
     55 H62          0.3420    -1.1610    -1.0950 h1         1 LLL       0.056700
     56 H13          1.9180    -0.2210    -2.1260 h2         1 LLL       0.082700
     57 H23          4.3400    -0.3400    -2.1640 h1         1 LLL       0.095700
     58 H2           3.0660    -2.0900    -0.3290 ho         1 LLL       0.442000
     59 H1           4.2480    -0.0210     0.8560 h1         1 LLL       0.057700
     60 H33          6.7260     0.1980    -0.5010 hn         1 LLL       0.374800
     61 H43          5.5920     2.8610    -1.6360 ho         1 LLL       0.402000
     62 H531         3.3520     3.2720    -0.7650 h1         1 LLL       0.052200
     63 H532         2.8060     2.1830     0.5010 h1         1 LLL       0.052200
     64 H831         4.8970     2.1830     1.7940 hc         1 LLL       0.044367
     65 H832         6.4530     2.1000     0.9640 hc         1 LLL       0.044367
     66 H833         5.3950     3.4880     0.7190 hc         1 LLL       0.044367
     67 H931         7.5100    -1.3040     1.0970 h1         1 LLL       0.023367
     68 H932         6.5050    -0.1630     1.9920 h1         1 LLL       0.023367
     69 H933         5.8630    -1.7380     1.5220 h1         1 LLL       0.023367
     70 H12          0.8440    -1.4250     1.8910 h1         1 LLL       0.069700
@<TRIPOS>BOND
     1     1     2 1   
     2     1     3 1   
     3     1     8 1   
     4     1    32 1   
     5     2    16 1   
     6     3     4 1   
     7     3     5 1   
     8     3    33 1   
     9     4    34 1   
    10     4    35 1   
    11     5     6 1   
    12     5    36 1   
    13     5    37 1   
    14     6     7 1   
    15     6    38 1   
    16     6    39 1   
    17     7     8 1   
    18     7     9 1   
    19     7    40 1   
    20     9    10 1   
    21     9    41 1   
    22     9    42 1   
    23    10    43 1   
    24    10    44 1   
    25    11    12 1   
    26    11    13 1   
    27    11    19 1   
    28    11    70 1   
    29    12    45 1   
    30    12    46 1   
    31    13    14 1   
    32    13    47 1   
    33    13    48 1   
    34    14    15 1   
    35    14    16 1   
    36    14    49 1   
    37    15    50 1   
    38    15    51 1   
    39    16    17 1   
    40    16    52 1   
    41    17    18 1   
    42    17    19 1   
    43    17    53 1   
    44    18    54 1   
    45    19    20 1   
    46    19    55 1   
    47    20    21 1   
    48    21    22 1   
    49    21    29 1   
    50    21    56 1   
    51    22    23 1   
    52    22    24 1   
    53    22    57 1   
    54    23    58 1   
    55    24    25 1   
    56    24    26 1   
    57    24    59 1   
    58    25    31 1   
    59    25    60 1   
    60    26    27 1   
    61    26    28 1   
    62    26    30 1   
    63    27    61 1   
    64    28    29 1   
    65    28    62 1   
    66    28    63 1   
    67    30    64 1   
    68    30    65 1   
    69    30    66 1   
    70    31    67 1   
    71    31    68 1   
    72    31    69 1   
@<TRIPOS>SUBSTRUCTURE
     1 LLL         1 TEMP              0 ****  ****    0 ROOT
