@<TRIPOS>MOLECULE
LLN
   75    79     1     0     0
SMALL
No Charge or Current Charge


@<TRIPOS>ATOM
      1 C1           4.4090     3.4490    -0.7820 c3         1 LLN       0.161600
      2 C2           2.4780     1.9400    -0.4080 ca         1 LLN       0.133100
      3 C3           1.5950     3.0190    -0.1930 ca         1 LLN      -0.186000
      4 O1           3.8180     2.1370    -0.7010 os         1 LLN      -0.318100
      5 C11          6.8140    -1.6160     1.3800 c5         1 LLN       0.066000
      6 C12          5.0930    -3.2270     1.3810 c          1 LLN       0.584000
      7 C13         -1.7180     1.1950     0.5140 ce         1 LLN       0.401900
      8 C14         -4.1480    -1.4270    -0.3380 c3         1 LLN       0.138700
      9 C15         -3.6120    -1.5070    -1.7950 c3         1 LLN      -0.079400
     10 C16         -4.5470    -2.1670    -2.8370 c3         1 LLN      -0.070400
     11 C17         -5.3560    -3.4030    -2.3830 c3         1 LLN      -0.072400
     12 C18         -4.6230    -4.3820    -1.4410 c3         1 LLN      -0.072400
     13 C19         -4.6960    -3.9740     0.0480 c3         1 LLN      -0.070400
     14 C20         -3.8660    -2.7350     0.4520 c3         1 LLN      -0.079400
     15 C21         -4.4080     0.4970     1.2630 c          1 LLN       0.558000
     16 C22         -3.7650     1.7470     1.9150 c6         1 LLN      -0.142700
     17 C23         -4.7630     2.8630     2.3420 c6         1 LLN      -0.028200
     18 C24         -5.1910     3.7590     1.1930 c2         1 LLN      -0.210200
     19 C25         -4.5240     3.8340     0.0310 c2         1 LLN      -0.224200
     20 C26         -3.2740     3.0240    -0.2740 c6         1 LLN      -0.038200
     21 C27         -2.6550     2.3260     0.9780 c6         1 LLN      -0.127000
     22 O4          -5.5400     0.1330     1.5620 o          1 LLN      -0.535000
     23 N3          -3.5710    -0.2620     0.3870 n          1 LLN      -0.179800
     24 N2          -2.2010    -0.0030     0.3440 n2         1 LLN      -0.453300
     25 C5          -0.2620     1.4670     0.2150 ca         1 LLN      -0.121900
     26 C4           0.2440     2.7830     0.1100 ca         1 LLN      -0.088000
     27 C6           0.6300     0.3900    -0.0150 ca         1 LLN      -0.135000
     28 C7           1.9900     0.6180    -0.3210 ca         1 LLN       0.111100
     29 C            5.9190     3.3000    -1.0970 c3         1 LLN       0.160600
     30 O            6.1320     2.7730    -2.4190 oh         1 LLN      -0.646000
     31 C8           2.5110    -1.8090    -0.3800 c3         1 LLN       0.127600
     32 C9           3.7570    -2.6760    -0.6590 c3         1 LLN       0.127000
     33 N            4.8800    -2.4330     0.2760 n          1 LLN      -0.415800
     34 N1           6.1970    -2.7800     2.0290 ns         1 LLN      -0.483900
     35 C10          5.8900    -1.3710     0.1330 c5         1 LLN       0.085000
     36 H1           3.9300     4.0490    -1.5670 h1         1 LLN       0.043700
     37 H2           4.2980     3.9770     0.1740 h1         1 LLN       0.043700
     38 H3           1.9360     4.0480    -0.2580 ha         1 LLN       0.118000
     39 H5           7.8480    -1.8240     1.0740 h1         1 LLN       0.043700
     40 H6          -5.2350    -1.2820    -0.3970 h1         1 LLN       0.084700
     41 H7          -3.4040    -0.4910    -2.1540 hc         1 LLN       0.047200
     42 H8          -2.6440    -2.0240    -1.7970 hc         1 LLN       0.047200
     43 H9          -5.2570    -1.4130    -3.1990 hc         1 LLN       0.037700
     44 H10         -3.9380    -2.4460    -3.7060 hc         1 LLN       0.037700
     45 H11         -6.2850    -3.0700    -1.9040 hc         1 LLN       0.037450
     46 H12         -5.6670    -3.9500    -3.2830 hc         1 LLN       0.037450
     47 H13         -5.0960    -5.3670    -1.5400 hc         1 LLN       0.037450
     48 H14         -3.5790    -4.5080    -1.7540 hc         1 LLN       0.037450
     49 H15         -5.7450    -3.8070     0.3250 hc         1 LLN       0.037700
     50 H16         -4.3550    -4.8220     0.6550 hc         1 LLN       0.037700
     51 H17         -2.7990    -2.9780     0.3800 hc         1 LLN       0.047200
     52 H18         -4.0580    -2.5460     1.5160 hc         1 LLN       0.047200
     53 H19         -3.2580     1.3600     2.8100 hc         1 LLN       0.078700
     54 H20         -5.6480     2.4210     2.8220 hc         1 LLN       0.062200
     55 H21         -4.2940     3.4920     3.1120 hc         1 LLN       0.062200
     56 H22         -6.0860     4.3620     1.3580 ha         1 LLN       0.176000
     57 H23         -4.8720     4.4980    -0.7640 ha         1 LLN       0.176000
     58 H24         -3.5330     2.2730    -1.0340 hc         1 LLN       0.057200
     59 H25         -2.5250     3.6760    -0.7450 hc         1 LLN       0.057200
     60 H26         -2.0900     3.0680     1.5570 hc         1 LLN       0.072700
     61 H27         -0.3990     3.6460     0.2560 ha         1 LLN       0.114000
     62 H28          0.2560    -0.6280     0.0500 ha         1 LLN       0.141000
     63 H29          6.3910     4.2870    -1.0070 h1         1 LLN       0.028200
     64 H30          6.3780     2.6450    -0.3430 h1         1 LLN       0.028200
     65 H31          7.1040     2.6880    -2.5400 ho         1 LLN       0.441000
     66 H32          2.1580    -2.0030     0.6410 h1         1 LLN       0.050200
     67 H33          1.7160    -2.0860    -1.0850 h1         1 LLN       0.050200
     68 H34          3.4690    -3.7340    -0.6170 h1         1 LLN       0.064700
     69 H35          4.1040    -2.4780    -1.6820 h1         1 LLN       0.064700
     70 H36          6.5080    -3.2460     2.8720 hn         1 LLN       0.316500
     71 H37          5.4340    -0.3730     0.1610 h1         1 LLN       0.066700
     72 H38          6.4460    -1.4730    -0.8090 h1         1 LLN       0.066700
     73 O2           2.8750    -0.4250    -0.5420 os         1 LLN      -0.335100
     74 H4           6.8250    -0.7410     2.0430 h1         1 LLN       0.043700
     75 O3           4.4140    -4.1750     1.7340 o          1 LLN      -0.585000
@<TRIPOS>BOND
     1     1     4 1   
     2     1    29 1   
     3     1    36 1   
     4     1    37 1   
     5     2     3 ar  
     6     2     4 1   
     7     2    28 ar  
     8     3    26 ar  
     9     3    38 1   
    10     5    34 1   
    11     5    35 1   
    12     5    39 1   
    13     5    74 1   
    14     6    33 1   
    15     6    34 1   
    16     6    75 2   
    17     7    21 1   
    18     7    24 2   
    19     7    25 1   
    20     8     9 1   
    21     8    14 1   
    22     8    23 1   
    23     8    40 1   
    24     9    10 1   
    25     9    41 1   
    26     9    42 1   
    27    10    11 1   
    28    10    43 1   
    29    10    44 1   
    30    11    12 1   
    31    11    45 1   
    32    11    46 1   
    33    12    13 1   
    34    12    47 1   
    35    12    48 1   
    36    13    14 1   
    37    13    49 1   
    38    13    50 1   
    39    14    51 1   
    40    14    52 1   
    41    15    16 1   
    42    15    22 2   
    43    15    23 1   
    44    16    17 1   
    45    16    21 1   
    46    16    53 1   
    47    17    18 1   
    48    17    54 1   
    49    17    55 1   
    50    18    19 2   
    51    18    56 1   
    52    19    20 1   
    53    19    57 1   
    54    20    21 1   
    55    20    58 1   
    56    20    59 1   
    57    21    60 1   
    58    23    24 1   
    59    25    26 ar  
    60    25    27 ar  
    61    26    61 1   
    62    27    28 ar  
    63    27    62 1   
    64    28    73 1   
    65    29    30 1   
    66    29    63 1   
    67    29    64 1   
    68    30    65 1   
    69    31    32 1   
    70    31    66 1   
    71    31    67 1   
    72    31    73 1   
    73    32    33 1   
    74    32    68 1   
    75    32    69 1   
    76    33    35 1   
    77    34    70 1   
    78    35    71 1   
    79    35    72 1   
@<TRIPOS>SUBSTRUCTURE
     1 LLN         1 TEMP              0 ****  ****    0 ROOT
