@<TRIPOS>MOLECULE
LLN
   75    79     1     0     0
SMALL
bcc


@<TRIPOS>ATOM
      1 C1           4.4420     3.0820    -0.1500 c3         1 LLN       0.138400
      2 C2           2.4080     1.8510    -0.2420 ca         1 LLN       0.133100
      3 C3           1.6140     2.9240     0.1200 ca         1 LLN      -0.204000
      4 O1           3.7340     1.8860    -0.4220 os         1 LLN      -0.294900
      5 C11          6.5960    -1.5580     0.6380 c5         1 LLN       0.066000
      6 C12          4.6120    -2.6320     1.1540 c          1 LLN       0.793500
      7 C13         -1.7940     1.3120     0.3620 ce         1 LLN       0.401900
      8 C14         -4.0020    -1.3890    -0.2750 c3         1 LLN       0.138700
      9 C15         -3.5860    -1.4780    -1.7470 c3         1 LLN      -0.079400
     10 C16         -4.5010    -2.3330    -2.6240 c3         1 LLN      -0.070400
     11 C17         -5.0200    -3.6330    -2.0060 c3         1 LLN      -0.072400
     12 C18         -4.0250    -4.3950    -1.1300 c3         1 LLN      -0.072400
     13 C19         -4.0010    -3.9050     0.3170 c3         1 LLN      -0.070400
     14 C20         -3.4090    -2.5220     0.5680 c3         1 LLN      -0.079400
     15 C21         -4.4340     0.6670     1.0310 c          1 LLN       0.700500
     16 C22         -3.7710     1.8570     1.6870 c6         1 LLN      -0.142700
     17 C23         -4.7620     2.9250     2.1240 c6         1 LLN      -0.028200
     18 C24         -5.2080     3.7860     0.9840 c2         1 LLN      -0.160200
     19 C25         -4.5800     3.8400    -0.1870 c2         1 LLN      -0.174200
     20 C26         -3.3460     3.0550    -0.5040 c6         1 LLN      -0.038200
     21 C27         -2.7130     2.4310     0.7500 c6         1 LLN      -0.127000
     22 O4          -5.6090     0.3780     1.1880 o          1 LLN      -0.610500
     23 N3          -3.5900    -0.0990     0.2850 n          1 LLN      -0.246800
     24 N2          -2.2550     0.1380     0.1580 n2         1 LLN      -0.453300
     25 C5          -0.3520     1.5140     0.1580 ca         1 LLN      -0.121900
     26 C4           0.2450     2.7550     0.3210 ca         1 LLN      -0.106000
     27 C6           0.4540     0.4290    -0.2310 ca         1 LLN      -0.153000
     28 C7           1.8060     0.5870    -0.4370 ca         1 LLN       0.111100
     29 C            5.9150     2.7680    -0.1690 c3         1 LLN       0.137400
     30 O            6.2870     2.3370    -1.4550 oh         1 LLN      -0.583800
     31 C8           2.2300    -1.7380    -0.7110 c3         1 LLN       0.104400
     32 C9           3.4340    -2.6160    -1.0000 c3         1 LLN       0.127000
     33 N            4.5840    -2.3500    -0.1760 n          1 LLN      -0.482800
     34 N1           5.7080    -2.0130     1.6910 ns         1 LLN      -0.550900
     35 C10          5.6220    -1.3990    -0.5310 c5         1 LLN       0.085000
     36 H1           4.1990     3.8510    -0.8930 h1         1 LLN       0.043700
     37 H2           4.1840     3.4760     0.8380 h1         1 LLN       0.043700
     38 H3           2.0430     3.9060     0.2680 ha         1 LLN       0.136000
     39 H5           7.3700    -2.2990     0.4150 h1         1 LLN       0.043700
     40 H6          -5.0900    -1.4070    -0.1980 h1         1 LLN       0.084700
     41 H7          -3.5550    -0.4730    -2.1750 hc         1 LLN       0.047200
     42 H8          -2.5610    -1.8520    -1.8010 hc         1 LLN       0.047200
     43 H9          -5.3630    -1.7380    -2.9370 hc         1 LLN       0.037700
     44 H10         -3.9540    -2.5670    -3.5410 hc         1 LLN       0.037700
     45 H11         -5.9120    -3.4240    -1.4070 hc         1 LLN       0.037450
     46 H12         -5.3650    -4.2750    -2.8200 hc         1 LLN       0.037450
     47 H13         -4.3100    -5.4500    -1.1160 hc         1 LLN       0.037450
     48 H14         -3.0200    -4.3640    -1.5650 hc         1 LLN       0.037450
     49 H15         -5.0280    -3.9290     0.6980 hc         1 LLN       0.037700
     50 H16         -3.4400    -4.6180     0.9260 hc         1 LLN       0.037700
     51 H17         -2.3280    -2.5460     0.3990 hc         1 LLN       0.047200
     52 H18         -3.5530    -2.2870     1.6270 hc         1 LLN       0.047200
     53 H19         -3.2630     1.4610     2.5770 hc         1 LLN       0.078700
     54 H20         -5.6250     2.4670     2.6100 hc         1 LLN       0.062200
     55 H21         -4.2910     3.5490     2.8910 hc         1 LLN       0.062200
     56 H22         -6.0890     4.3990     1.1430 ha         1 LLN       0.126000
     57 H23         -4.9670     4.4780    -0.9740 ha         1 LLN       0.126000
     58 H24         -3.5830     2.2840    -1.2460 hc         1 LLN       0.057200
     59 H25         -2.6120     3.7010    -0.9940 hc         1 LLN       0.057200
     60 H26         -2.1770     3.2090     1.2960 hc         1 LLN       0.072700
     61 H27         -0.3330     3.6210     0.6110 ha         1 LLN       0.132000
     62 H28         -0.0140    -0.5350    -0.3720 ha         1 LLN       0.159000
     63 H29          6.4450     3.6810     0.1310 h1         1 LLN       0.028200
     64 H30          6.1290     2.0100     0.5950 h1         1 LLN       0.028200
     65 H31          7.2190     2.1010    -1.4350 ho         1 LLN       0.402000
     66 H32          1.8420    -1.9350     0.2940 h1         1 LLN       0.050200
     67 H33          1.4360    -1.9740    -1.4290 h1         1 LLN       0.050200
     68 H34          3.1240    -3.6560    -0.8770 h1         1 LLN       0.064700
     69 H35          3.7380    -2.5020    -2.0420 h1         1 LLN       0.064700
     70 H36          6.0950    -2.3970     2.5390 hn         1 LLN       0.316500
     71 H37          5.2330    -0.3810    -0.5910 h1         1 LLN       0.066700
     72 H38          6.0800    -1.6490    -1.4880 h1         1 LLN       0.066700
     73 O2           2.6440    -0.3910    -0.8210 os         1 LLN      -0.311900
     74 H4           7.0850    -0.6200     0.8940 h1         1 LLN       0.043700
     75 O3           3.7920    -3.3070     1.7600 o          1 LLN      -0.660500
@<TRIPOS>BOND
     1     1     4 1   
     2     1    29 1   
     3     1    36 1   
     4     1    37 1   
     5     2     3 ar  
     6     2     4 1   
     7     2    28 ar  
     8     3    26 ar  
     9     3    38 1   
    10     5    34 1   
    11     5    35 1   
    12     5    39 1   
    13     5    74 1   
    14     6    33 1   
    15     6    34 1   
    16     6    75 2   
    17     7    21 1   
    18     7    24 2   
    19     7    25 1   
    20     8     9 1   
    21     8    14 1   
    22     8    23 1   
    23     8    40 1   
    24     9    10 1   
    25     9    41 1   
    26     9    42 1   
    27    10    11 1   
    28    10    43 1   
    29    10    44 1   
    30    11    12 1   
    31    11    45 1   
    32    11    46 1   
    33    12    13 1   
    34    12    47 1   
    35    12    48 1   
    36    13    14 1   
    37    13    49 1   
    38    13    50 1   
    39    14    51 1   
    40    14    52 1   
    41    15    16 1   
    42    15    22 2   
    43    15    23 1   
    44    16    17 1   
    45    16    21 1   
    46    16    53 1   
    47    17    18 1   
    48    17    54 1   
    49    17    55 1   
    50    18    19 2   
    51    18    56 1   
    52    19    20 1   
    53    19    57 1   
    54    20    21 1   
    55    20    58 1   
    56    20    59 1   
    57    21    60 1   
    58    23    24 1   
    59    25    26 ar  
    60    25    27 ar  
    61    26    61 1   
    62    27    28 ar  
    63    27    62 1   
    64    28    73 1   
    65    29    30 1   
    66    29    63 1   
    67    29    64 1   
    68    30    65 1   
    69    31    32 1   
    70    31    66 1   
    71    31    67 1   
    72    31    73 1   
    73    32    33 1   
    74    32    68 1   
    75    32    69 1   
    76    33    35 1   
    77    34    70 1   
    78    35    71 1   
    79    35    72 1   
@<TRIPOS>SUBSTRUCTURE
     1 LLN         1 TEMP              0 ****  ****    0 ROOT
