@<TRIPOS>MOLECULE
LLO
   42    41     1     0     0
SMALL
No Charge or Current Charge


@<TRIPOS>ATOM
      1 C           38.1720   -14.2370    19.1460 c          1 LLO       0.720000
      2 N           39.0750   -13.9110    16.6960 n8         1 LLO      -1.002200
      3 O           38.8910   -13.6880    19.9730 o          1 LLO      -0.731500
      4 O1          28.8850   -10.4400    12.3290 oh         1 LLO      -0.664000
      5 C8          30.5200    -8.9520    13.2410 c3         1 LLO      -0.098600
      6 CA          38.0250   -13.5520    17.7160 c3         1 LLO       0.023500
      7 CB          36.5970   -13.7380    17.1260 c3         1 LLO      -0.049400
      8 CD          34.8230   -12.9780    15.4110 c3         1 LLO      -0.079400
      9 CE          34.5010   -12.0550    14.2190 c3         1 LLO       0.160800
     10 CG          36.2710   -12.8130    15.9260 c3         1 LLO      -0.076400
     11 NZ          33.1060   -12.2570    13.7840 n7         1 LLO      -0.869400
     12 C12         31.0460   -11.4210    12.7250 c3         1 LLO      -0.102400
     13 C13         32.6040   -11.3700    12.7150 c3         1 LLO       0.180500
     14 C14         33.2260   -11.8090    11.3660 c3         1 LLO      -0.128100
     15 C16         30.5890    -9.7120    10.8180 c3         1 LLO      -0.098600
     16 OXT         37.5730   -15.2800    19.3790 o          1 LLO      -0.731500
     17 HN          38.9370   -13.3360    15.8570 hn         1 LLO       0.378500
     18 HNA         39.9960   -13.6210    17.0470 hn         1 LLO       0.378500
     19 HO1         28.7250   -11.1660    11.6900 ho         1 LLO       0.433000
     20 H8          31.5580    -8.6030    13.1990 hc         1 LLO       0.040700
     21 H8A         29.8750    -8.1020    12.9830 hc         1 LLO       0.040700
     22 H8B         30.2990    -9.2410    14.2760 hc         1 LLO       0.040700
     23 HA          38.1480   -12.4740    17.8900 h1         1 LLO      -0.007300
     24 HB          36.4570   -14.7850    16.8290 hc         1 LLO       0.046200
     25 HBA         35.8670   -13.5380    17.9200 hc         1 LLO       0.046200
     26 HD          34.1240   -12.7660    16.2300 hc         1 LLO       0.042200
     27 HDA         34.6640   -14.0220    15.1140 hc         1 LLO       0.042200
     28 HE          34.6570   -11.0110    14.5240 h1         1 LLO       0.022700
     29 HEA         35.2000   -12.2760    13.4020 h1         1 LLO       0.022700
     30 HG          36.4280   -11.7690    16.2240 hc         1 LLO       0.025700
     31 HGA         36.9640   -13.0200    15.1010 hc         1 LLO       0.025700
     32 HNZ         32.9890   -13.2300    13.4800 hn         1 LLO       0.404000
     33 H12         30.7110   -11.6460    13.7460 hc         1 LLO       0.049700
     34 H12A        30.7190   -12.2740    12.1180 hc         1 LLO       0.049700
     35 H13         32.9190   -10.3380    12.9250 h1         1 LLO       0.055700
     36 H14         32.8620   -11.2010    10.5330 hc         1 LLO       0.033700
     37 H14A        34.3170   -11.7070    11.3820 hc         1 LLO       0.033700
     38 H14B        32.9840   -12.8560    11.1460 hc         1 LLO       0.033700
     39 H16         31.6060    -9.3130    10.7330 hc         1 LLO       0.040700
     40 H16A        30.4870   -10.5580    10.1280 hc         1 LLO       0.040700
     41 H16B        29.9020    -8.9220    10.4890 hc         1 LLO       0.040700
     42 C11         30.2810   -10.1360    12.2730 c3         1 LLO       0.185000
@<TRIPOS>BOND
     1     1     3 1   
     2     1     6 1   
     3     1    16 1   
     4     2     6 1   
     5     2    17 1   
     6     2    18 1   
     7     4    19 1   
     8     4    42 1   
     9     5    20 1   
    10     5    21 1   
    11     5    22 1   
    12     5    42 1   
    13     6     7 1   
    14     6    23 1   
    15     7    10 1   
    16     7    24 1   
    17     7    25 1   
    18     8     9 1   
    19     8    10 1   
    20     8    26 1   
    21     8    27 1   
    22     9    11 1   
    23     9    28 1   
    24     9    29 1   
    25    10    30 1   
    26    10    31 1   
    27    11    13 1   
    28    11    32 1   
    29    12    13 1   
    30    12    33 1   
    31    12    34 1   
    32    12    42 1   
    33    13    14 1   
    34    13    35 1   
    35    14    36 1   
    36    14    37 1   
    37    14    38 1   
    38    15    39 1   
    39    15    40 1   
    40    15    41 1   
    41    15    42 1   
@<TRIPOS>SUBSTRUCTURE
     1 LLO         1 TEMP              0 ****  ****    0 ROOT
