@<TRIPOS>MOLECULE
LLO
   42    41     1     0     0
SMALL
abcg2


@<TRIPOS>ATOM
      1 C           38.1840   -14.0510    18.9830 c          1 LLO       0.720000
      2 N           38.8590   -13.8620    16.6050 n8         1 LLO      -1.002200
      3 O           39.2350   -14.7120    19.1100 o          1 LLO      -0.731500
      4 O1          28.9500   -10.5200    12.1530 oh         1 LLO      -0.664000
      5 C8          30.4610    -9.3860    13.5450 c3         1 LLO      -0.098600
      6 CA          37.9490   -13.3470    17.6200 c3         1 LLO       0.023500
      7 CB          36.5010   -13.4810    17.1570 c3         1 LLO      -0.049400
      8 CD          34.7350   -12.8450    15.4520 c3         1 LLO      -0.079400
      9 CE          34.4320   -12.1170    14.1520 c3         1 LLO       0.160800
     10 CG          36.1940   -12.7200    15.8730 c3         1 LLO      -0.076400
     11 NZ          33.0290   -12.2320    13.8030 n7         1 LLO      -0.869400
     12 C12         31.0860   -11.5800    12.4750 c3         1 LLO      -0.102400
     13 C13         32.6170   -11.4880    12.6190 c3         1 LLO       0.180500
     14 C14         33.3180   -11.9220    11.3290 c3         1 LLO      -0.128100
     15 C16         30.8430    -9.4850    11.0720 c3         1 LLO      -0.098600
     16 OXT         37.3140   -13.8680    19.8570 o          1 LLO      -0.731500
     17 HN          39.0230   -13.1580    15.8970 hn         1 LLO       0.378500
     18 HNA         39.7500   -14.0470    17.0450 hn         1 LLO       0.378500
     19 HO1         28.8320   -11.0700    11.3710 ho         1 LLO       0.433000
     20 H8          31.4980    -9.1140    13.7400 hc         1 LLO       0.040700
     21 H8A         29.8960    -8.4590    13.4330 hc         1 LLO       0.040700
     22 H8B         30.0840    -9.9120    14.4240 hc         1 LLO       0.040700
     23 HA          38.1220   -12.2720    17.8150 h1         1 LLO      -0.007300
     24 HB          36.2660   -14.5410    17.0120 hc         1 LLO       0.046200
     25 HBA         35.8440   -13.1190    17.9500 hc         1 LLO       0.046200
     26 HD          34.0870   -12.4530    16.2420 hc         1 LLO       0.042200
     27 HDA         34.4780   -13.9040    15.3400 hc         1 LLO       0.042200
     28 HE          34.6630   -11.0530    14.2710 h1         1 LLO       0.022700
     29 HEA         35.1150   -12.4890    13.3730 h1         1 LLO       0.022700
     30 HG          36.4400   -11.6610    16.0100 hc         1 LLO       0.025700
     31 HGA         36.8340   -13.0790    15.0610 hc         1 LLO       0.025700
     32 HNZ         32.7960   -13.2120    13.6750 hn         1 LLO       0.404000
     33 H12         30.6800   -12.0680    13.3650 hc         1 LLO       0.049700
     34 H12A        30.8400   -12.2300    11.6260 hc         1 LLO       0.049700
     35 H13         32.8990   -10.4460    12.8110 h1         1 LLO       0.055700
     36 H14         32.9660   -11.3420    10.4750 hc         1 LLO       0.033700
     37 H14A        34.3990   -11.7950    11.3860 hc         1 LLO       0.033700
     38 H14B        33.1120   -12.9750    11.1200 hc         1 LLO       0.033700
     39 H16         31.8930    -9.2070    11.1690 hc         1 LLO       0.040700
     40 H16A        30.7440   -10.0860    10.1640 hc         1 LLO       0.040700
     41 H16B        30.2700    -8.5660    10.9330 hc         1 LLO       0.040700
     42 C11         30.3410   -10.2500    12.2950 c3         1 LLO       0.185000
@<TRIPOS>BOND
     1     1     3 1   
     2     1     6 1   
     3     1    16 1   
     4     2     6 1   
     5     2    17 1   
     6     2    18 1   
     7     4    19 1   
     8     4    42 1   
     9     5    20 1   
    10     5    21 1   
    11     5    22 1   
    12     5    42 1   
    13     6     7 1   
    14     6    23 1   
    15     7    10 1   
    16     7    24 1   
    17     7    25 1   
    18     8     9 1   
    19     8    10 1   
    20     8    26 1   
    21     8    27 1   
    22     9    11 1   
    23     9    28 1   
    24     9    29 1   
    25    10    30 1   
    26    10    31 1   
    27    11    13 1   
    28    11    32 1   
    29    12    13 1   
    30    12    33 1   
    31    12    34 1   
    32    12    42 1   
    33    13    14 1   
    34    13    35 1   
    35    14    36 1   
    36    14    37 1   
    37    14    38 1   
    38    15    39 1   
    39    15    40 1   
    40    15    41 1   
    41    15    42 1   
@<TRIPOS>SUBSTRUCTURE
     1 LLO         1 TEMP              0 ****  ****    0 ROOT
