@<TRIPOS>MOLECULE
LLP
   44    44     1     0     0
SMALL
No Charge or Current Charge


@<TRIPOS>ATOM
      1 N1         -28.7320   -11.9050     3.6990 nb         1 LLP      -0.678000
      2 C2         -27.6340   -12.3160     3.0210 ca         1 LLP       0.235300
      3 C1         -27.8860   -13.3300     1.9090 c3         1 LLP      -0.106400
      4 C3         -26.3220   -11.8450     3.3130 ca         1 LLP       0.147100
      5 O3         -25.2450   -12.2940     2.5970 oh         1 LLP      -0.599100
      6 C4         -26.1340   -10.9020     4.3570 ca         1 LLP      -0.218900
      7 C7         -24.7790   -10.3560     4.7220 ce         1 LLP       0.523800
      8 C5         -27.2970   -10.4790     5.0610 ca         1 LLP      -0.010300
      9 C6         -28.5530   -11.0060     4.6930 ca         1 LLP       0.240900
     10 C8         -27.2490    -9.4790     6.2140 c3         1 LLP       0.276900
     11 OP4        -26.8650    -8.1990     5.7070 os         1 LLP      -0.570400
     12 P          -26.6430    -7.0000     6.7520 p5         1 LLP       1.261900
     13 OP1        -26.2730    -5.7730     5.9970 o          1 LLP      -0.916833
     14 OP2        -25.5430    -7.3550     7.6880 o          1 LLP      -0.916833
     15 OP3        -27.9010    -6.7530     7.5070 o          1 LLP      -0.916833
     16 N          -18.1710   -11.5290     2.7270 n8         1 LLP      -0.997200
     17 CA         -18.5560   -12.8260     3.3930 c3         1 LLP       0.027500
     18 CB         -20.0470   -13.1890     3.1210 c3         1 LLP      -0.053400
     19 CG         -21.1040   -12.4460     3.9830 c3         1 LLP      -0.059400
     20 CD         -21.2680   -10.9340     3.6850 c3         1 LLP      -0.078400
     21 CE         -22.3880   -10.2470     4.4980 c3         1 LLP       0.126800
     22 NZ         -23.7080   -10.7480     4.0920 n2         1 LLP      -0.715900
     23 C          -17.6230   -14.0660     3.0590 c          1 LLP       0.683000
     24 O          -17.0630   -14.6380     3.9850 o          1 LLP      -0.749000
     25 OXT        -17.4080   -14.3370     1.8840 o          1 LLP      -0.749000
     26 H2'1       -28.9480   -13.5880     1.8140 hc         1 LLP       0.023033
     27 H2'2       -27.5550   -12.9370     0.9410 hc         1 LLP       0.023033
     28 H2'3       -27.3370   -14.2600     2.0980 hc         1 LLP       0.023033
     29 HO3        -24.4570   -11.8240     2.9920 ho         1 LLP       0.538000
     30 H4'1       -24.7150    -9.6430     5.5480 h4         1 LLP       0.091800
     31 H6         -29.4570   -10.6990     5.2170 h4         1 LLP       0.002100
     32 H5'1       -28.2350    -9.4210     6.6910 h1         1 LLP       0.004200
     33 H5'2       -26.5350    -9.8350     6.9680 h1         1 LLP       0.004200
     34 HA         -18.4590   -12.6610     4.4750 h1         1 LLP       0.027700
     35 HB2        -20.2770   -13.0580     2.0560 hc         1 LLP       0.038700
     36 HB3        -20.1730   -14.2600     3.3230 hc         1 LLP       0.038700
     37 HG2        -22.0690   -12.9440     3.8240 hc         1 LLP       0.017700
     38 HG3        -20.8600   -12.5810     5.0440 hc         1 LLP       0.017700
     39 HD2        -20.3300   -10.4200     3.9190 hc         1 LLP       0.059700
     40 HD3        -21.4540   -10.7850     2.6150 hc         1 LLP       0.059700
     41 HE2        -22.2110   -10.4240     5.5680 h1         1 LLP       0.044700
     42 HE3        -22.3250    -9.1630     4.3290 h1         1 LLP       0.044700
     43 H          -17.2000   -11.3050     2.9740 hn         1 LLP       0.376500
     44 HN2        -18.1230   -11.6920     1.7150 hn         1 LLP       0.376500
@<TRIPOS>BOND
     1     1     2 ar  
     2     1     9 ar  
     3     2     3 1   
     4     2     4 ar  
     5     3    26 1   
     6     3    27 1   
     7     3    28 1   
     8     4     5 1   
     9     4     6 ar  
    10     5    29 1   
    11     6     7 1   
    12     6     8 ar  
    13     7    22 2   
    14     7    30 1   
    15     8     9 ar  
    16     8    10 1   
    17     9    31 1   
    18    10    11 1   
    19    10    32 1   
    20    10    33 1   
    21    11    12 1   
    22    12    13 1   
    23    12    14 1   
    24    12    15 1   
    25    16    17 1   
    26    16    43 1   
    27    16    44 1   
    28    17    18 1   
    29    17    23 1   
    30    17    34 1   
    31    18    19 1   
    32    18    35 1   
    33    18    36 1   
    34    19    20 1   
    35    19    37 1   
    36    19    38 1   
    37    20    21 1   
    38    20    39 1   
    39    20    40 1   
    40    21    22 1   
    41    21    41 1   
    42    21    42 1   
    43    23    24 1   
    44    23    25 1   
@<TRIPOS>SUBSTRUCTURE
     1 LLP         1 TEMP              0 ****  ****    0 ROOT
