@<TRIPOS>MOLECULE
LLP
   44    44     1     0     0
SMALL
abcg2


@<TRIPOS>ATOM
      1 N1         -28.6180   -11.8100     3.4180 nb         1 LLP      -0.678000
      2 C2         -27.6390   -12.6940     3.3830 ca         1 LLP       0.235300
      3 C1         -27.8780   -14.0170     2.7210 c3         1 LLP      -0.106400
      4 C3         -26.3820   -12.4090     3.9530 ca         1 LLP       0.147100
      5 O3         -25.4330   -13.3380     3.8800 oh         1 LLP      -0.599100
      6 C4         -26.1780   -11.1710     4.5790 ca         1 LLP      -0.218900
      7 C7         -24.8860   -10.8700     5.1970 ce         1 LLP       0.523800
      8 C5         -27.2360   -10.2470     4.6010 ca         1 LLP      -0.010300
      9 C6         -28.4220   -10.6280     4.0020 ca         1 LLP       0.240900
     10 C8         -27.1050    -8.8860     5.2370 c3         1 LLP       0.276900
     11 OP4        -26.0950    -8.1520     4.6140 os         1 LLP      -0.570400
     12 P          -25.2330    -7.0100     5.5790 p5         1 LLP       1.261900
     13 OP1        -24.2260    -6.4940     4.5620 o          1 LLP      -0.916833
     14 OP2        -24.6390    -7.8460     6.7170 o          1 LLP      -0.916833
     15 OP3        -26.2850    -6.0090     6.0390 o          1 LLP      -0.916833
     16 N          -18.4680   -11.6270     4.0740 n8         1 LLP      -0.997200
     17 CA         -18.9270   -12.5370     3.0160 c3         1 LLP       0.027500
     18 CB         -20.3550   -12.2120     2.5990 c3         1 LLP      -0.053400
     19 CG         -21.4140   -12.3840     3.6930 c3         1 LLP      -0.059400
     20 CD         -21.6090   -11.1680     4.5930 c3         1 LLP      -0.078400
     21 CE         -22.6490   -11.3720     5.6920 c3         1 LLP       0.126800
     22 NZ         -23.9350   -11.7130     5.1320 n2         1 LLP      -0.715900
     23 C          -17.9210   -12.5570     1.8380 c          1 LLP       0.683000
     24 O          -16.8660   -13.1940     2.0470 o          1 LLP      -0.749000
     25 OXT        -18.2020   -11.9070     0.8100 o          1 LLP      -0.749000
     26 H2'1       -28.8940   -14.0620     2.3330 hc         1 LLP       0.023033
     27 H2'2       -27.1870   -14.1840     1.8930 hc         1 LLP       0.023033
     28 H2'3       -27.7410   -14.8450     3.4180 hc         1 LLP       0.023033
     29 HO3        -24.6180   -12.9530     4.3290 ho         1 LLP       0.538000
     30 H4'1       -24.7640    -9.9140     5.7130 h4         1 LLP       0.091800
     31 H6         -29.2640    -9.9430     3.9880 h4         1 LLP       0.002100
     32 H5'1       -28.0810    -8.3840     5.1690 h1         1 LLP       0.004200
     33 H5'2       -26.9120    -9.0230     6.3100 h1         1 LLP       0.004200
     34 HA         -18.9330   -13.5410     3.4590 h1         1 LLP       0.027700
     35 HB2        -20.4040   -11.1960     2.1930 hc         1 LLP       0.038700
     36 HB3        -20.6110   -12.8710     1.7660 hc         1 LLP       0.038700
     37 HG2        -22.3690   -12.6200     3.2160 hc         1 LLP       0.017700
     38 HG3        -21.1680   -13.2570     4.3090 hc         1 LLP       0.017700
     39 HD2        -20.6630   -10.9090     5.0690 hc         1 LLP       0.059700
     40 HD3        -21.9040   -10.3050     3.9860 hc         1 LLP       0.059700
     41 HE2        -22.3320   -12.1930     6.3410 h1         1 LLP       0.044700
     42 HE3        -22.7150   -10.4670     6.3080 h1         1 LLP       0.044700
     43 H          -17.5040   -11.8500     4.2960 hn         1 LLP       0.376500
     44 HN2        -18.4480   -10.6820     3.7050 hn         1 LLP       0.376500
@<TRIPOS>BOND
     1     1     2 ar  
     2     1     9 ar  
     3     2     3 1   
     4     2     4 ar  
     5     3    26 1   
     6     3    27 1   
     7     3    28 1   
     8     4     5 1   
     9     4     6 ar  
    10     5    29 1   
    11     6     7 1   
    12     6     8 ar  
    13     7    22 2   
    14     7    30 1   
    15     8     9 ar  
    16     8    10 1   
    17     9    31 1   
    18    10    11 1   
    19    10    32 1   
    20    10    33 1   
    21    11    12 1   
    22    12    13 1   
    23    12    14 1   
    24    12    15 1   
    25    16    17 1   
    26    16    43 1   
    27    16    44 1   
    28    17    18 1   
    29    17    23 1   
    30    17    34 1   
    31    18    19 1   
    32    18    35 1   
    33    18    36 1   
    34    19    20 1   
    35    19    37 1   
    36    19    38 1   
    37    20    21 1   
    38    20    39 1   
    39    20    40 1   
    40    21    22 1   
    41    21    41 1   
    42    21    42 1   
    43    23    24 1   
    44    23    25 1   
@<TRIPOS>SUBSTRUCTURE
     1 LLP         1 TEMP              0 ****  ****    0 ROOT
