@<TRIPOS>MOLECULE
LLR
   39    39     1     0     0
SMALL
abcg2


@<TRIPOS>ATOM
      1 N12         20.3470    11.1780   -70.0790 n8         1 LLR      -0.999200
      2 C15         13.4240     4.9610   -68.8620 c3         1 LLR       0.195800
      3 C17         12.7740     6.4310   -67.0160 c3         1 LLR       0.195800
      4 C01         17.3170     8.1160   -68.5460 ca         1 LLR      -0.100300
      5 C02         16.0510     8.6820   -68.6160 ca         1 LLR      -0.080000
      6 C03         14.9170     7.9250   -68.3600 ca         1 LLR      -0.152000
      7 C04         14.9950     6.5780   -68.0080 ca         1 LLR       0.290000
      8 C05         16.2830     6.0320   -67.9200 ca         1 LLR      -0.024900
      9 C06         17.4180     6.7710   -68.2020 ca         1 LLR      -0.054000
     10 C08         18.5580     8.9180   -68.8340 c3         1 LLR       0.210100
     11 C11         20.7670    10.0560   -70.8740 c3         1 LLR       0.570700
     12 C16         12.7560     5.7110   -70.0100 c3         1 LLR      -0.113100
     13 C18         13.2010     6.9010   -65.6370 c3         1 LLR      -0.113100
     14 N09         19.2200     8.3870   -70.0160 n7         1 LLR      -0.625200
     15 N10         20.5350     8.8280   -70.1820 n7         1 LLR      -0.656200
     16 N14         13.8610     5.7900   -67.7410 nh         1 LLR      -0.786400
     17 S13         19.8250    10.2480   -72.4780 sh         1 LLR      -0.525800
     18 BR7         16.5030     4.2430   -67.3440 br         1 LLR      -0.097100
     19 H1          20.7950    11.1180   -69.1720 hn         1 LLR       0.421500
     20 H2          20.6500    12.0440   -70.5060 hn         1 LLR       0.421500
     21 H4          12.7360     4.2100   -68.4650 h1         1 LLR       0.043450
     22 H5          14.2840     4.4110   -69.2470 h1         1 LLR       0.043450
     23 H6          12.3140     7.2630   -67.5660 h1         1 LLR       0.043450
     24 H7          11.9910     5.6780   -66.9060 h1         1 LLR       0.043450
     25 H8          15.9430     9.7260   -68.8820 ha         1 LLR       0.116000
     26 H9          13.9440     8.3940   -68.4410 ha         1 LLR       0.116000
     27 H10         18.3980     6.3140   -68.1310 ha         1 LLR       0.136000
     28 H11         19.2570     8.8240   -68.0000 h1         1 LLR       0.055200
     29 H12         18.2970     9.9780   -68.9140 h1         1 LLR       0.055200
     30 H13         21.8280    10.0510   -71.1480 h3         1 LLR       0.041700
     31 H14         12.4820     5.0110   -70.7990 hc         1 LLR       0.039533
     32 H15         11.8460     6.2210   -69.6920 hc         1 LLR       0.039533
     33 H16         13.4250     6.4540   -70.4460 hc         1 LLR       0.039533
     34 H17         12.3410     7.2970   -65.0960 hc         1 LLR       0.039533
     35 H18         13.6160     6.0760   -65.0570 hc         1 LLR       0.039533
     36 H19         13.9500     7.6920   -65.6830 hc         1 LLR       0.039533
     37 H20         18.6710     8.5990   -70.8480 hn         1 LLR       0.422000
     38 H21         21.0690     8.0860   -70.6130 hn         1 LLR       0.453000
     39 H22         20.5770     9.4090   -73.2010 hs         1 LLR       0.215800
@<TRIPOS>BOND
     1     1    11 1   
     2     1    19 1   
     3     1    20 1   
     4     2    12 1   
     5     2    16 1   
     6     2    21 1   
     7     2    22 1   
     8     3    13 1   
     9     3    16 1   
    10     3    23 1   
    11     3    24 1   
    12     4     5 ar  
    13     4     9 ar  
    14     4    10 1   
    15     5     6 ar  
    16     5    25 1   
    17     6     7 ar  
    18     6    26 1   
    19     7     8 ar  
    20     7    16 1   
    21     8     9 ar  
    22     8    18 1   
    23     9    27 1   
    24    10    14 1   
    25    10    28 1   
    26    10    29 1   
    27    11    15 1   
    28    11    17 1   
    29    11    30 1   
    30    12    31 1   
    31    12    32 1   
    32    12    33 1   
    33    13    34 1   
    34    13    35 1   
    35    13    36 1   
    36    14    15 1   
    37    14    37 1   
    38    15    38 1   
    39    17    39 1   
@<TRIPOS>SUBSTRUCTURE
     1 LLR         1 TEMP              0 ****  ****    0 ROOT
