@<TRIPOS>MOLECULE
LLR
   39    39     1     0     0
SMALL
No Charge or Current Charge


@<TRIPOS>ATOM
      1 N12         20.1340    11.2650   -70.2500 n8         1 LLR      -0.999200
      2 C15         13.2960     5.0610   -68.9880 c3         1 LLR       0.195800
      3 C17         12.7350     6.5670   -67.0280 c3         1 LLR       0.195800
      4 C01         17.4890     8.0050   -68.4080 ca         1 LLR      -0.100300
      5 C02         16.2920     8.6770   -68.7190 ca         1 LLR      -0.080000
      6 C03         15.0560     8.0230   -68.5760 ca         1 LLR      -0.152000
      7 C04         14.9950     6.6920   -68.1270 ca         1 LLR       0.290000
      8 C05         16.1980     6.0180   -67.8110 ca         1 LLR      -0.024900
      9 C06         17.4340     6.6740   -67.9530 ca         1 LLR      -0.054000
     10 C08         18.8300     8.7110   -68.5570 c3         1 LLR       0.210100
     11 C11         20.7810    10.2020   -70.9420 c3         1 LLR       0.570700
     12 C16         12.4690     5.6630   -70.1370 c3         1 LLR      -0.113100
     13 C18         13.2760     6.6870   -65.5910 c3         1 LLR      -0.113100
     14 N09         19.4340     8.3920   -69.8700 n7         1 LLR      -0.625200
     15 N10         20.7600     9.0190   -70.0820 n7         1 LLR      -0.656200
     16 N14         13.7340     6.0650   -67.9960 nh         1 LLR      -0.786400
     17 S13         19.7310    10.0030   -72.4110 sh         1 LLR      -0.525800
     18 Br7         16.1940     4.2120   -67.1500 br         1 LLR      -0.097100
     19 H1          20.8510    11.7470   -69.7070 hn         1 LLR       0.421500
     20 H2          19.8520    11.9320   -70.9670 hn         1 LLR       0.421500
     21 H4          12.7030     4.2810   -68.4900 h1         1 LLR       0.043450
     22 H5          14.1740     4.5600   -69.4180 h1         1 LLR       0.043450
     23 H6          12.3690     7.5500   -67.3540 h1         1 LLR       0.043450
     24 H7          11.8660     5.8940   -67.0070 h1         1 LLR       0.043450
     25 H8          16.3180     9.7060   -69.0720 ha         1 LLR       0.116000
     26 H9          14.1390     8.5500   -68.8230 ha         1 LLR       0.116000
     27 H10         18.3540     6.1470   -67.7070 ha         1 LLR       0.136000
     28 H11         19.4950     8.3960   -67.7410 h1         1 LLR       0.055200
     29 H12         18.6760     9.7930   -68.4510 h1         1 LLR       0.055200
     30 H13         21.7880    10.5190   -71.2480 h3         1 LLR       0.041700
     31 H14         12.1830     4.8800   -70.8490 hc         1 LLR       0.039533
     32 H15         11.5550     6.1310   -69.7560 hc         1 LLR       0.039533
     33 H16         13.0510     6.4210   -70.6750 hc         1 LLR       0.039533
     34 H17         12.4840     7.0290   -64.9160 hc         1 LLR       0.039533
     35 H18         13.6390     5.7160   -65.2340 hc         1 LLR       0.039533
     36 H19         14.1010     7.4080   -65.5430 hc         1 LLR       0.039533
     37 H20         18.7760     8.6500   -70.6240 hn         1 LLR       0.422000
     38 H21         21.4860     8.3630   -70.4140 hn         1 LLR       0.453000
     39 H22         20.4680     9.0020   -72.9460 hs         1 LLR       0.215800
@<TRIPOS>BOND
     1     1    11 1   
     2     1    19 1   
     3     1    20 1   
     4     2    12 1   
     5     2    16 1   
     6     2    21 1   
     7     2    22 1   
     8     3    13 1   
     9     3    16 1   
    10     3    23 1   
    11     3    24 1   
    12     4     5 ar  
    13     4     9 ar  
    14     4    10 1   
    15     5     6 ar  
    16     5    25 1   
    17     6     7 ar  
    18     6    26 1   
    19     7     8 ar  
    20     7    16 1   
    21     8     9 ar  
    22     8    18 1   
    23     9    27 1   
    24    10    14 1   
    25    10    28 1   
    26    10    29 1   
    27    11    15 1   
    28    11    17 1   
    29    11    30 1   
    30    12    31 1   
    31    12    32 1   
    32    12    33 1   
    33    13    34 1   
    34    13    35 1   
    35    13    36 1   
    36    14    15 1   
    37    14    37 1   
    38    15    38 1   
    39    17    39 1   
@<TRIPOS>SUBSTRUCTURE
     1 LLR         1 TEMP              0 ****  ****    0 ROOT
