@<TRIPOS>MOLECULE
LLS
   40    44     1     0     0
SMALL
No Charge or Current Charge


@<TRIPOS>ATOM
      1 C10          4.3490    -1.4600    -0.0560 ca         1 LLS      -0.185600
      2 C15          3.1650     3.8730     0.3920 c3         1 LLS      -0.135400
      3 C20         -3.0280     1.5240    -0.2210 ca         1 LLS      -0.073200
      4 C21         -4.3220     2.0060    -0.4470 ca         1 LLS      -0.092000
      5 C22         -5.3670     1.0610    -0.5050 ca         1 LLS      -0.085000
      6 C02          1.4320     0.6090     0.4810 cc         1 LLS       0.194100
      7 C03          2.5810     1.3430     0.5660 cd         1 LLS      -0.283300
      8 C04          3.9280     0.6830     0.7950 c5         1 LLS       0.319900
      9 C05          4.2140    -0.1480    -0.4330 ca         1 LLS      -0.094300
     10 C06          4.3530     0.2390    -1.7750 ca         1 LLS      -0.087000
     11 C07          4.6310    -0.7600    -2.7330 ca         1 LLS      -0.085000
     12 C08          4.7650    -2.1120    -2.3380 ca         1 LLS      -0.119000
     13 C09          4.6230    -2.4770    -0.9830 ca         1 LLS      -0.032000
     14 C11          4.1400    -1.5420     1.4090 c          1 LLS       0.675700
     15 C14          2.2220     2.7050     0.3870 cd         1 LLS       0.349300
     16 C18         -0.8940     1.2350     0.1040 cc         1 LLS       0.550300
     17 C23         -5.0990    -0.3180    -0.3390 ca         1 LLS       0.108000
     18 C25         -3.7750    -0.7720    -0.1120 ca         1 LLS       0.159000
     19 C27         -2.7420     0.1850    -0.0570 ca         1 LLS       0.109400
     20 N16          0.9240     2.8900     0.1960 nc         1 LLS      -0.544800
     21 N17          0.4610     1.5840     0.2580 na         1 LLS       0.061000
     22 N19         -1.8500     2.2060    -0.1200 na         1 LLS      -0.288600
     23 N28         -1.3700    -0.0260     0.1540 nd         1 LLS      -0.654100
     24 O12          3.8850    -0.2770     1.8970 os         1 LLS      -0.427100
     25 O13          4.1900    -2.5590     2.0870 o          1 LLS      -0.486000
     26 Cl24        -6.4420    -1.4600    -0.4210 cl         1 LLS      -0.167000
     27 Cl26        -3.4150    -2.4900     0.0980 cl         1 LLS      -0.139000
     28 H1           3.9480     3.7420    -0.3620 hc         1 LLS       0.058033
     29 H2           2.6450     4.8130     0.1760 hc         1 LLS       0.058033
     30 H3           3.6500     3.9740     1.3700 hc         1 LLS       0.058033
     31 H4          -4.5160     3.0690    -0.5730 ha         1 LLS       0.132000
     32 H5          -6.3880     1.3950    -0.6790 ha         1 LLS       0.137000
     33 H7           4.7130     1.4310     0.9790 h1         1 LLS       0.083700
     34 H8           4.2480     1.2810    -2.0710 ha         1 LLS       0.124000
     35 H9           4.7420    -0.4880    -3.7800 ha         1 LLS       0.116000
     36 H10          4.9780    -2.8750    -3.0830 ha         1 LLS       0.119000
     37 H11          4.7220    -3.5140    -0.6670 ha         1 LLS       0.136000
     38 H12         -1.6790     3.2000    -0.1900 hn         1 LLS       0.390000
     39 H6           0.2280    -0.8280     0.4410 ho         1 LLS       0.537000
     40 O01          1.2070    -0.7210     0.5650 oh         1 LLS      -0.497100
@<TRIPOS>BOND
     1     1     9 ar  
     2     1    13 ar  
     3     1    14 1   
     4     2    15 1   
     5     2    28 1   
     6     2    29 1   
     7     2    30 1   
     8     3     4 ar  
     9     3    19 ar  
    10     3    22 1   
    11     4     5 ar  
    12     4    31 1   
    13     5    17 ar  
    14     5    32 1   
    15     6     7 2   
    16     6    21 1   
    17     6    40 1   
    18     7     8 1   
    19     7    15 1   
    20     8     9 1   
    21     8    24 1   
    22     8    33 1   
    23     9    10 ar  
    24    10    11 ar  
    25    10    34 1   
    26    11    12 ar  
    27    11    35 1   
    28    12    13 ar  
    29    12    36 1   
    30    13    37 1   
    31    14    24 1   
    32    14    25 2   
    33    15    20 2   
    34    16    21 1   
    35    16    22 1   
    36    16    23 2   
    37    17    18 ar  
    38    17    26 1   
    39    18    19 ar  
    40    18    27 1   
    41    19    23 1   
    42    20    21 1   
    43    22    38 1   
    44    39    40 1   
@<TRIPOS>SUBSTRUCTURE
     1 LLS         1 TEMP              0 ****  ****    0 ROOT
