@<TRIPOS>MOLECULE
LLS
   40    44     1     0     0
SMALL
abcg2


@<TRIPOS>ATOM
      1 C10          4.5780    -1.4210    -0.0030 ca         1 LLS      -0.185600
      2 C15          3.0320     3.8640     0.7470 c3         1 LLS      -0.135400
      3 C20         -3.1090     1.6380    -0.1000 ca         1 LLS      -0.073200
      4 C21         -4.4150     2.0910    -0.1740 ca         1 LLS      -0.092000
      5 C22         -5.3970     1.1390    -0.3810 ca         1 LLS      -0.085000
      6 C02          1.3610     0.6510     0.2080 cc         1 LLS       0.194100
      7 C03          2.5360     1.3370     0.3950 cd         1 LLS      -0.283300
      8 C04          3.9010     0.7700     0.4590 c5         1 LLS       0.319900
      9 C05          4.2170    -0.2370    -0.6090 ca         1 LLS      -0.094300
     10 C06          4.1860    -0.1230    -1.9860 ca         1 LLS      -0.087000
     11 C07          4.5400    -1.2420    -2.7300 ca         1 LLS      -0.085000
     12 C08          4.9090    -2.4400    -2.1150 ca         1 LLS      -0.119000
     13 C09          4.9310    -2.5460    -0.7330 ca         1 LLS      -0.032000
     14 C11          4.4960    -1.2310     1.4500 c          1 LLS       0.675700
     15 C14          2.1400     2.6960     0.5250 cd         1 LLS       0.349300
     16 C18         -0.9630     1.3290     0.0710 cc         1 LLS       0.550300
     17 C23         -5.0800    -0.2170    -0.5110 ca         1 LLS       0.108000
     18 C25         -3.7700    -0.6630    -0.4360 ca         1 LLS       0.159000
     19 C27         -2.7720     0.2820    -0.2270 ca         1 LLS       0.109400
     20 N16          0.8430     2.8420     0.4190 nc         1 LLS      -0.544800
     21 N17          0.3690     1.5860     0.2280 na         1 LLS       0.061000
     22 N19         -1.9090     2.2820     0.0920 na         1 LLS      -0.288600
     23 N28         -1.4180     0.1180    -0.1160 nd         1 LLS      -0.654100
     24 O12          4.1020     0.0300     1.6850 os         1 LLS      -0.427100
     25 O13          4.7220    -2.0060     2.3400 o          1 LLS      -0.486000
     26 CL24        -6.3570    -1.3470    -0.7700 cl         1 LLS      -0.167000
     27 CL26        -3.3460    -2.3170    -0.5920 cl         1 LLS      -0.139000
     28 H1           3.7630     3.9580    -0.0570 hc         1 LLS       0.058033
     29 H2           2.4560     4.7860     0.7920 hc         1 LLS       0.058033
     30 H3           3.5860     3.7620     1.6800 hc         1 LLS       0.058033
     31 H4          -4.6670     3.1380    -0.0740 ha         1 LLS       0.132000
     32 H5          -6.4320     1.4440    -0.4450 ha         1 LLS       0.137000
     33 H7           4.6360     1.5810     0.4490 h1         1 LLS       0.083700
     34 H8           3.8940     0.7980    -2.4730 ha         1 LLS       0.124000
     35 H9           4.5270    -1.1860    -3.8110 ha         1 LLS       0.116000
     36 H10          5.1780    -3.2910    -2.7250 ha         1 LLS       0.119000
     37 H11          5.2140    -3.4700    -0.2450 ha         1 LLS       0.136000
     38 H12         -1.7560     3.2730     0.2140 hn         1 LLS       0.390000
     39 H6           0.1830    -0.8000    -0.0730 ho         1 LLS       0.537000
     40 O01          1.1490    -0.6340     0.0410 oh         1 LLS      -0.497100
@<TRIPOS>BOND
     1     1     9 ar  
     2     1    13 ar  
     3     1    14 1   
     4     2    15 1   
     5     2    28 1   
     6     2    29 1   
     7     2    30 1   
     8     3     4 ar  
     9     3    19 ar  
    10     3    22 1   
    11     4     5 ar  
    12     4    31 1   
    13     5    17 ar  
    14     5    32 1   
    15     6     7 2   
    16     6    21 1   
    17     6    40 1   
    18     7     8 1   
    19     7    15 1   
    20     8     9 1   
    21     8    24 1   
    22     8    33 1   
    23     9    10 ar  
    24    10    11 ar  
    25    10    34 1   
    26    11    12 ar  
    27    11    35 1   
    28    12    13 ar  
    29    12    36 1   
    30    13    37 1   
    31    14    24 1   
    32    14    25 2   
    33    15    20 2   
    34    16    21 1   
    35    16    22 1   
    36    16    23 2   
    37    17    18 ar  
    38    17    26 1   
    39    18    19 ar  
    40    18    27 1   
    41    19    23 1   
    42    20    21 1   
    43    22    38 1   
    44    39    40 1   
@<TRIPOS>SUBSTRUCTURE
     1 LLS         1 TEMP              0 ****  ****    0 ROOT
