@<TRIPOS>MOLECULE
LLT
   31    32     1     0     0
SMALL
No Charge or Current Charge


@<TRIPOS>ATOM
      1 O4          -4.6000     0.4590     0.0880 o          1 LLT      -0.525000
      2 C4          -3.4090     0.2370    -0.0650 c          1 LLT       0.588200
      3 C5          -2.3160     1.0730     0.4820 cc         1 LLT      -0.264400
      4 C7          -2.7400     2.2830     1.2820 c3         1 LLT      -0.018900
      5 C6          -1.0030     0.7260     0.2440 cd         1 LLT      -0.005400
      6 N3          -2.9840    -0.8390    -0.7760 ns         1 LLT      -0.466500
      7 C2          -1.7090    -1.2280    -1.0370 c          1 LLT       0.626000
      8 O2          -1.4890    -2.2330    -1.6920 o          1 LLT      -0.553000
      9 N1          -0.6960    -0.4110    -0.5060 n          1 LLT      -0.315000
     10 C1           0.7160    -0.7940    -0.7600 c5         1 LLT       0.334700
     11 O1           1.5370     0.3740    -0.9640 os         1 LLT      -0.443000
     12 C8           2.8000     0.1140    -0.3160 c5         1 LLT       0.164300
     13 C9           3.6440     1.4140    -0.1970 c3         1 LLT       0.170600
     14 O5           4.1560     1.8320    -1.4780 oh         1 LLT      -0.703000
     15 C3           2.3340    -0.4880     1.0400 c5         1 LLT       0.135300
     16 O3           3.3740    -1.1540     1.7590 oh         1 LLT      -0.701000
     17 C10          1.2520    -1.4810     0.5400 c5         1 LLT      -0.168400
     18 H7          -3.3370     1.9890     2.1550 hc         1 LLT       0.046367
     19 H7A         -1.8710     2.8430     1.6480 hc         1 LLT       0.046367
     20 H7B         -3.3430     2.9670     0.6730 hc         1 LLT       0.046367
     21 H6          -0.1450     1.2850     0.6070 h4         1 LLT       0.201000
     22 HN3         -3.7070    -1.4270    -1.1590 hn         1 LLT       0.344500
     23 H1           0.7650    -1.4630    -1.6310 h2         1 LLT       0.110700
     24 H4           3.3640    -0.6270    -0.9000 h1         1 LLT       0.081700
     25 H5           3.0200     2.2020     0.2450 h1         1 LLT       0.028700
     26 H5'A         4.4770     1.2250     0.4930 h1         1 LLT       0.028700
     27 HO5          4.6300     2.6840    -1.3340 ho         1 LLT       0.506000
     28 H3           1.8810     0.2980     1.6620 h1         1 LLT       0.036700
     29 HO3          2.9750    -1.5000     2.5920 ho         1 LLT       0.513000
     30 H2           0.4760    -1.6630     1.2920 hc         1 LLT       0.077200
     31 H2'A         1.6850    -2.4560     0.2900 hc         1 LLT       0.077200
@<TRIPOS>BOND
     1     1     2 2   
     2     2     3 1   
     3     2     6 1   
     4     3     4 1   
     5     3     5 2   
     6     4    18 1   
     7     4    19 1   
     8     4    20 1   
     9     5     9 1   
    10     5    21 1   
    11     6     7 1   
    12     6    22 1   
    13     7     8 2   
    14     7     9 1   
    15     9    10 1   
    16    10    11 1   
    17    10    17 1   
    18    10    23 1   
    19    11    12 1   
    20    12    13 1   
    21    12    15 1   
    22    12    24 1   
    23    13    14 1   
    24    13    25 1   
    25    13    26 1   
    26    14    27 1   
    27    15    16 1   
    28    15    17 1   
    29    15    28 1   
    30    16    29 1   
    31    17    30 1   
    32    17    31 1   
@<TRIPOS>SUBSTRUCTURE
     1 LLT         1 TEMP              0 ****  ****    0 ROOT
