@<TRIPOS>MOLECULE
LLT
   31    32     1     0     0
SMALL
abcg2


@<TRIPOS>ATOM
      1 O4          -4.4020     0.9330    -0.3360 o          1 LLT      -0.525000
      2 C4          -3.2580     0.5170    -0.3350 c          1 LLT       0.588200
      3 C5          -2.1940     1.0130     0.5180 cc         1 LLT      -0.264400
      4 C7          -2.4890     2.1220     1.4740 c3         1 LLT      -0.018900
      5 C6          -0.9820     0.4490     0.3980 cd         1 LLT      -0.005400
      6 N3          -2.8770    -0.5030    -1.1870 ns         1 LLT      -0.466500
      7 C2          -1.6420    -1.0800    -1.3200 c          1 LLT       0.626000
      8 O2          -1.4310    -1.9670    -2.1220 o          1 LLT      -0.553000
      9 N1          -0.6860    -0.5730    -0.4680 n          1 LLT      -0.315000
     10 C1           0.6830    -1.0610    -0.5490 c5         1 LLT       0.334700
     11 O1           1.4910    -0.0090    -1.0230 os         1 LLT      -0.443000
     12 C8           2.7070     0.0400    -0.2960 c5         1 LLT       0.164300
     13 C9           3.2620     1.4420    -0.3130 c3         1 LLT       0.170600
     14 O5           3.6390     1.7770    -1.6270 oh         1 LLT      -0.703000
     15 C3           2.3450    -0.4550     1.1010 c5         1 LLT       0.135300
     16 O3           3.4900    -0.9390     1.7440 oh         1 LLT      -0.701000
     17 C10          1.2780    -1.5060     0.7930 c5         1 LLT      -0.168400
     18 H7          -3.2610     1.8370     2.1890 hc         1 LLT       0.046367
     19 H7A         -1.5970     2.3960     2.0350 hc         1 LLT       0.046367
     20 H7B         -2.8430     3.0110     0.9520 hc         1 LLT       0.046367
     21 H6          -0.1600     0.7910     1.0120 h4         1 LLT       0.201000
     22 HN3         -3.5910    -0.8680    -1.8050 hn         1 LLT       0.344500
     23 H1           0.6700    -1.8870    -1.2580 h2         1 LLT       0.110700
     24 H4           3.4420    -0.6520    -0.7330 h1         1 LLT       0.081700
     25 H5           2.5050     2.1310     0.0860 h1         1 LLT       0.028700
     26 H5'A         4.1150     1.4680     0.3760 h1         1 LLT       0.028700
     27 HO5          4.0530     2.6440    -1.6080 ho         1 LLT       0.506000
     28 H3           1.9040     0.3740     1.6740 h1         1 LLT       0.036700
     29 HO3          3.2740    -1.1130     2.6640 ho         1 LLT       0.513000
     30 H2           0.5280    -1.6160     1.5760 hc         1 LLT       0.077200
     31 H2'A         1.7640    -2.4750     0.6650 hc         1 LLT       0.077200
@<TRIPOS>BOND
     1     1     2 2   
     2     2     3 1   
     3     2     6 1   
     4     3     4 1   
     5     3     5 2   
     6     4    18 1   
     7     4    19 1   
     8     4    20 1   
     9     5     9 1   
    10     5    21 1   
    11     6     7 1   
    12     6    22 1   
    13     7     8 2   
    14     7     9 1   
    15     9    10 1   
    16    10    11 1   
    17    10    17 1   
    18    10    23 1   
    19    11    12 1   
    20    12    13 1   
    21    12    15 1   
    22    12    24 1   
    23    13    14 1   
    24    13    25 1   
    25    13    26 1   
    26    14    27 1   
    27    15    16 1   
    28    15    17 1   
    29    15    28 1   
    30    16    29 1   
    31    17    30 1   
    32    17    31 1   
@<TRIPOS>SUBSTRUCTURE
     1 LLT         1 TEMP              0 ****  ****    0 ROOT
