@<TRIPOS>MOLECULE
LLU
   21    21     1     0     0
SMALL
No Charge or Current Charge


@<TRIPOS>ATOM
      1 C4          63.8430    24.9220    87.0570 ca         1 LLU      -0.169000
      2 C5          64.3650    26.0730    87.6750 ca         1 LLU      -0.090000
      3 C6          65.7320    26.3760    87.5660 ca         1 LLU      -0.166000
      4 C7          66.5830    25.5290    86.8360 ca         1 LLU      -0.130000
      5 C8          66.0650    24.3790    86.2170 ca         1 LLU       0.101000
      6 C1          62.6800    21.3420    84.7560 c3         1 LLU      -0.067100
      7 C2          62.8630    22.4350    85.8300 c3         1 LLU       0.015300
      8 C3          64.6920    24.0600    86.3240 ca         1 LLU       0.179100
      9 F1          66.9020    23.5770    85.5160 f          1 LLU      -0.188000
     10 C9          62.5410    21.8770    87.2600 c          1 LLU       0.703000
     11 O2          61.3630    21.7280    87.5570 o          1 LLU      -0.711500
     12 O3          63.4540    21.6660    88.0480 o          1 LLU      -0.711500
     13 H1          62.7810    24.7180    87.1560 ha         1 LLU       0.143000
     14 H2          63.7080    26.7320    88.2390 ha         1 LLU       0.098000
     15 H3          66.1320    27.2680    88.0450 ha         1 LLU       0.094000
     16 H4          67.6410    25.7630    86.7480 ha         1 LLU       0.107000
     17 H7          63.3500    20.4950    84.9450 hc         1 LLU       0.029367
     18 H8          62.1510    23.2390    85.6080 h1         1 LLU       0.025700
     19 O1          64.2240    22.9190    85.6890 os         1 LLU      -0.320100
     20 H5          61.6480    20.9700    84.7580 hc         1 LLU       0.029367
     21 H6          62.8950    21.7410    83.7570 hc         1 LLU       0.029367
@<TRIPOS>BOND
     1     1     2 ar  
     2     1     8 ar  
     3     1    13 1   
     4     2     3 ar  
     5     2    14 1   
     6     3     4 ar  
     7     3    15 1   
     8     4     5 ar  
     9     4    16 1   
    10     5     8 ar  
    11     5     9 1   
    12     6     7 1   
    13     6    17 1   
    14     6    20 1   
    15     6    21 1   
    16     7    10 1   
    17     7    18 1   
    18     7    19 1   
    19     8    19 1   
    20    10    11 1   
    21    10    12 1   
@<TRIPOS>SUBSTRUCTURE
     1 LLU         1 TEMP              0 ****  ****    0 ROOT
