@<TRIPOS>MOLECULE
LLU
   21    21     1     0     0
SMALL
abcg2


@<TRIPOS>ATOM
      1 C4          63.8420    24.8510    87.1110 ca         1 LLU      -0.169000
      2 C5          64.3630    25.9950    87.7060 ca         1 LLU      -0.090000
      3 C6          65.6970    26.3330    87.5530 ca         1 LLU      -0.166000
      4 C7          66.5230    25.5140    86.7880 ca         1 LLU      -0.130000
      5 C8          65.9960    24.3870    86.2030 ca         1 LLU       0.101000
      6 C1          62.7410    21.3620    84.8090 c3         1 LLU      -0.067100
      7 C2          62.9160    22.4860    85.8150 c3         1 LLU       0.015300
      8 C3          64.6560    24.0160    86.3490 ca         1 LLU       0.179100
      9 F1          66.7890    23.5990    85.4540 f          1 LLU      -0.188000
     10 C9          62.5390    21.9920    87.2350 c          1 LLU       0.703000
     11 O2          61.3130    21.9400    87.4480 o          1 LLU      -0.711500
     12 O3          63.4670    21.6650    87.9920 o          1 LLU      -0.711500
     13 H1          62.7950    24.6220    87.2540 ha         1 LLU       0.143000
     14 H2          63.7080    26.6230    88.2960 ha         1 LLU       0.098000
     15 H3          66.1000    27.2230    88.0170 ha         1 LLU       0.094000
     16 H4          67.5690    25.7530    86.6440 ha         1 LLU       0.107000
     17 H7          63.3700    20.5070    85.0590 hc         1 LLU       0.029367
     18 H8          62.2600    23.3180    85.5320 h1         1 LLU       0.025700
     19 O1          64.2750    22.9040    85.7130 os         1 LLU      -0.320100
     20 H5          61.7040    21.0300    84.8080 hc         1 LLU       0.029367
     21 H6          62.9890    21.6900    83.7990 hc         1 LLU       0.029367
@<TRIPOS>BOND
     1     1     2 ar  
     2     1     8 ar  
     3     1    13 1   
     4     2     3 ar  
     5     2    14 1   
     6     3     4 ar  
     7     3    15 1   
     8     4     5 ar  
     9     4    16 1   
    10     5     8 ar  
    11     5     9 1   
    12     6     7 1   
    13     6    17 1   
    14     6    20 1   
    15     6    21 1   
    16     7    10 1   
    17     7    18 1   
    18     7    19 1   
    19     8    19 1   
    20    10    11 1   
    21    10    12 1   
@<TRIPOS>SUBSTRUCTURE
     1 LLU         1 TEMP              0 ****  ****    0 ROOT
