@<TRIPOS>MOLECULE
LLV
   60    63     1     0     0
SMALL
abcg2


@<TRIPOS>ATOM
      1 C1          17.0910    -9.4930    -6.7140 c          1 LLV       0.578700
      2 N1          21.6930    -1.6370    -1.5910 n          1 LLV      -0.404800
      3 C2          17.9090    -9.7480    -5.4950 ca         1 LLV      -0.196600
      4 C3          18.0350   -11.0190    -4.9390 ca         1 LLV      -0.060000
      5 C4          18.7960   -11.2140    -3.7980 ca         1 LLV      -0.185000
      6 C5          19.4200   -10.1280    -3.2200 ca         1 LLV       0.194000
      7 C6          19.3230    -8.8400    -3.7350 cp         1 LLV      -0.069000
      8 C7          19.9890    -7.6800    -3.1090 cp         1 LLV      -0.029000
      9 C8          19.7210    -7.3170    -1.7920 ca         1 LLV      -0.073000
     10 C9          20.2820    -6.1700    -1.2510 ca         1 LLV      -0.089500
     11 C10         21.1370    -5.3660    -2.0000 ca         1 LLV      -0.073300
     12 C11         21.7090    -4.1010    -1.4220 c3         1 LLV      -0.024100
     13 C24         21.9800    -0.5600    -2.3710 c          1 LLV       0.577600
     14 C23         22.3860     0.5140    -1.4430 ca         1 LLV      -0.144600
     15 C22         22.8000     1.8050    -1.7190 ca         1 LLV      -0.042000
     16 C21         23.1180     2.6340    -0.6540 ca         1 LLV      -0.106000
     17 C20         23.0110     2.1490     0.6490 ca         1 LLV      -0.002900
     18 BR          23.4510     3.2960     2.0810 br         1 LLV      -0.112100
     19 C19         22.5930     0.8550     0.9320 ca         1 LLV      -0.079000
     20 C18         22.2810     0.0460    -0.1460 ca         1 LLV      -0.076300
     21 C17         21.8080    -1.3710    -0.1680 c5         1 LLV       0.139300
     22 C12         21.1520    -2.8650    -2.1320 c3         1 LLV       0.034700
     23 C13         19.6230    -2.8150    -2.0450 c          1 LLV       0.586100
     24 N           19.0060    -2.4790    -3.1790 ns         1 LLV      -0.431900
     25 C14         17.5680    -2.4350    -3.3320 c3         1 LLV      -0.049300
     26 C16         16.9600    -3.8110    -3.7250 c          1 LLV       0.718000
     27 O3          17.7480    -4.7110    -4.0630 o          1 LLV      -0.724000
     28 O2          15.7160    -3.8590    -3.6830 o          1 LLV      -0.724000
     29 C15         17.1980    -1.3730    -4.3630 c3         1 LLV      -0.079100
     30 O1          19.0510    -3.0110    -0.9800 o          1 LLV      -0.642100
     31 C25         21.4240    -5.7480    -3.3070 ca         1 LLV      -0.089500
     32 C26         20.8550    -6.8860    -3.8580 ca         1 LLV      -0.073000
     33 F           20.1590   -10.3290    -2.1230 f          1 LLV      -0.180000
     34 C27         18.5580    -8.6760    -4.8830 ca         1 LLV      -0.004000
     35 O           17.0260    -8.3780    -7.1880 o          1 LLV      -0.497100
     36 C           16.3530   -10.6510    -7.3270 c3         1 LLV      -0.194100
     37 H1          17.5460   -11.8740    -5.3850 ha         1 LLV       0.106000
     38 H2          18.9070   -12.1990    -3.3640 ha         1 LLV       0.121000
     39 H3          19.0410    -7.9090    -1.1920 ha         1 LLV       0.109000
     40 H4          20.0410    -5.8910    -0.2330 ha         1 LLV       0.108500
     41 H5          22.7960    -4.0920    -1.5280 hc         1 LLV       0.046700
     42 H6          21.4900    -4.0590    -0.3540 hc         1 LLV       0.046700
     43 H7          22.8760     2.1670    -2.7360 ha         1 LLV       0.136000
     44 H8          23.4450     3.6480    -0.8380 ha         1 LLV       0.126000
     45 H9          22.5140     0.4940     1.9500 ha         1 LLV       0.133000
     46 H10         20.8490    -1.4900     0.3430 h1         1 LLV       0.078200
     47 H11         22.5260    -2.0420     0.3110 h1         1 LLV       0.078200
     48 H12         21.4640    -2.9050    -3.1780 h1         1 LLV       0.082700
     49 H13         19.5600    -2.4270    -4.0200 hn         1 LLV       0.306500
     50 H14         17.1450    -2.1430    -2.3690 h1         1 LLV       0.062700
     51 H16         17.5810    -0.3940    -4.0750 hc         1 LLV       0.023367
     52 H17         17.6020    -1.6180    -5.3470 hc         1 LLV       0.023367
     53 H18         16.1160    -1.3000    -4.4550 hc         1 LLV       0.023367
     54 H19         22.0970    -5.1490    -3.9100 ha         1 LLV       0.108500
     55 H20         21.0860    -7.1590    -4.8800 ha         1 LLV       0.109000
     56 H21         18.4480    -7.6800    -5.2930 ha         1 LLV       0.177000
     57 H22         15.7950   -10.3230    -8.2010 hc         1 LLV       0.054367
     58 H23         17.0440   -11.4410    -7.6280 hc         1 LLV       0.054367
     59 H24         15.6580   -11.0920    -6.6100 hc         1 LLV       0.054367
     60 O4          21.9100    -0.5080    -3.5860 o          1 LLV      -0.542000
@<TRIPOS>BOND
     1     1     3 1   
     2     1    35 2   
     3     1    36 1   
     4     2    13 1   
     5     2    21 1   
     6     2    22 1   
     7     3     4 ar  
     8     3    34 ar  
     9     4     5 ar  
    10     4    37 1   
    11     5     6 ar  
    12     5    38 1   
    13     6     7 ar  
    14     6    33 1   
    15     7     8 1   
    16     7    34 ar  
    17     8     9 ar  
    18     8    32 ar  
    19     9    10 ar  
    20     9    39 1   
    21    10    11 ar  
    22    10    40 1   
    23    11    12 1   
    24    11    31 ar  
    25    12    22 1   
    26    12    41 1   
    27    12    42 1   
    28    13    14 1   
    29    13    60 2   
    30    14    15 ar  
    31    14    20 ar  
    32    15    16 ar  
    33    15    43 1   
    34    16    17 ar  
    35    16    44 1   
    36    17    18 1   
    37    17    19 ar  
    38    19    20 ar  
    39    19    45 1   
    40    20    21 1   
    41    21    46 1   
    42    21    47 1   
    43    22    23 1   
    44    22    48 1   
    45    23    24 1   
    46    23    30 2   
    47    24    25 1   
    48    24    49 1   
    49    25    26 1   
    50    25    29 1   
    51    25    50 1   
    52    26    27 1   
    53    26    28 1   
    54    29    51 1   
    55    29    52 1   
    56    29    53 1   
    57    31    32 ar  
    58    31    54 1   
    59    32    55 1   
    60    34    56 1   
    61    36    57 1   
    62    36    58 1   
    63    36    59 1   
@<TRIPOS>SUBSTRUCTURE
     1 LLV         1 TEMP              0 ****  ****    0 ROOT
