@<TRIPOS>MOLECULE
LLV
   60    63     1     0     0
SMALL
No Charge or Current Charge


@<TRIPOS>ATOM
      1 C1          17.6930    -9.6070    -7.2070 c          1 LLV       0.578700
      2 N1          21.7360    -1.4300    -1.4900 n          1 LLV      -0.404800
      3 C2          18.0640    -9.7230    -5.7410 ca         1 LLV      -0.196600
      4 C3          17.8310   -10.9070    -5.0050 ca         1 LLV      -0.060000
      5 C4          18.1880   -10.9790    -3.6500 ca         1 LLV      -0.185000
      6 C5          18.7780    -9.8800    -3.0110 ca         1 LLV       0.194000
      7 C6          19.0260    -8.6750    -3.7160 cp         1 LLV      -0.069000
      8 C7          19.6540    -7.4860    -3.0610 cp         1 LLV      -0.029000
      9 C8          19.2060    -7.0150    -1.8030 ca         1 LLV      -0.073000
     10 C9          19.7840    -5.8820    -1.2060 ca         1 LLV      -0.089500
     11 C10         20.8240    -5.1900    -1.8530 ca         1 LLV      -0.073300
     12 C11         21.4160    -3.9310    -1.2320 c3         1 LLV      -0.024100
     13 C24         21.6500    -0.2080    -2.1780 c          1 LLV       0.577600
     14 C23         22.3760     0.7850    -1.3660 ca         1 LLV      -0.144600
     15 C22         22.5940     2.1470    -1.6190 ca         1 LLV      -0.042000
     16 C21         23.3280     2.8870    -0.6690 ca         1 LLV      -0.106000
     17 C20         23.8180     2.2570     0.4960 ca         1 LLV      -0.002900
     18 Br          24.8110     3.2740     1.7760 br         1 LLV      -0.112100
     19 C19         23.5820     0.8850     0.7270 ca         1 LLV      -0.079000
     20 C18         22.8510     0.1590    -0.2270 ca         1 LLV      -0.076300
     21 C17         22.4770    -1.3170    -0.1890 c5         1 LLV       0.139300
     22 C12         21.0240    -2.6390    -2.0010 c3         1 LLV       0.034700
     23 C13         19.4750    -2.4670    -2.0100 c          1 LLV       0.586100
     24 N           18.8150    -3.1850    -2.9900 ns         1 LLV      -0.431900
     25 C14         17.3530    -3.1960    -3.2160 c3         1 LLV      -0.049300
     26 C16         16.9320    -4.4760    -4.0010 c          1 LLV       0.718000
     27 O3          17.6010    -4.8130    -4.9700 o          1 LLV      -0.724000
     28 O2          15.9970    -5.1350    -3.5680 o          1 LLV      -0.724000
     29 C15         16.8790    -1.9100    -3.9290 c3         1 LLV      -0.079100
     30 O1          18.8750    -1.7510    -1.2150 o          1 LLV      -0.642100
     31 C25         21.2830    -5.6490    -3.1020 ca         1 LLV      -0.089500
     32 C26         20.7030    -6.7800    -3.6990 ca         1 LLV      -0.073000
     33 F           19.1310   -10.0050    -1.7110 f          1 LLV      -0.180000
     34 C27         18.6600    -8.6200    -5.0840 ca         1 LLV      -0.004000
     35 O           17.9430    -8.5870    -7.8380 o          1 LLV      -0.497100
     36 C           17.0000   -10.7770    -7.9100 c3         1 LLV      -0.194100
     37 H1          17.3770   -11.7800    -5.4670 ha         1 LLV       0.106000
     38 H2          18.0120   -11.8950    -3.0910 ha         1 LLV       0.121000
     39 H3          18.3900    -7.5220    -1.2950 ha         1 LLV       0.109000
     40 H4          19.4090    -5.5360    -0.2460 ha         1 LLV       0.108500
     41 H5          22.5090    -4.0220    -1.2210 hc         1 LLV       0.046700
     42 H6          21.1030    -3.8390    -0.1850 hc         1 LLV       0.046700
     43 H7          22.2100     2.6180    -2.5220 ha         1 LLV       0.136000
     44 H8          23.5150     3.9450    -0.8360 ha         1 LLV       0.126000
     45 H9          23.9590     0.4010     1.6240 ha         1 LLV       0.133000
     46 H10         21.8350    -1.5490     0.6710 h1         1 LLV       0.078200
     47 H11         23.3680    -1.9570    -0.1640 h1         1 LLV       0.078200
     48 H12         21.3270    -2.7690    -3.0480 h1         1 LLV       0.082700
     49 H13         19.3850    -3.7760    -3.5860 hn         1 LLV       0.306500
     50 H14         16.8610    -3.2480    -2.2360 h1         1 LLV       0.062700
     51 H16         17.1260    -1.0210    -3.3370 hc         1 LLV       0.023367
     52 H17         17.3550    -1.8130    -4.9120 hc         1 LLV       0.023367
     53 H18         15.7930    -1.9320    -4.0730 hc         1 LLV       0.023367
     54 H19         22.0870    -5.1250    -3.6150 ha         1 LLV       0.108500
     55 H20         21.0730    -7.1170    -4.6640 ha         1 LLV       0.109000
     56 H21         18.8330    -7.6940    -5.6310 ha         1 LLV       0.177000
     57 H22         16.7670   -10.5600    -8.9590 hc         1 LLV       0.054367
     58 H23         17.6270   -11.6700    -7.8190 hc         1 LLV       0.054367
     59 H24         16.1020   -11.0530    -7.3470 hc         1 LLV       0.054367
     60 O4          21.0900    -0.0150    -3.2490 o          1 LLV      -0.542000
@<TRIPOS>BOND
     1     1     3 1   
     2     1    35 2   
     3     1    36 1   
     4     2    13 1   
     5     2    21 1   
     6     2    22 1   
     7     3     4 ar  
     8     3    34 ar  
     9     4     5 ar  
    10     4    37 1   
    11     5     6 ar  
    12     5    38 1   
    13     6     7 ar  
    14     6    33 1   
    15     7     8 1   
    16     7    34 ar  
    17     8     9 ar  
    18     8    32 ar  
    19     9    10 ar  
    20     9    39 1   
    21    10    11 ar  
    22    10    40 1   
    23    11    12 1   
    24    11    31 ar  
    25    12    22 1   
    26    12    41 1   
    27    12    42 1   
    28    13    14 1   
    29    13    60 2   
    30    14    15 ar  
    31    14    20 ar  
    32    15    16 ar  
    33    15    43 1   
    34    16    17 ar  
    35    16    44 1   
    36    17    18 1   
    37    17    19 ar  
    38    19    20 ar  
    39    19    45 1   
    40    20    21 1   
    41    21    46 1   
    42    21    47 1   
    43    22    23 1   
    44    22    48 1   
    45    23    24 1   
    46    23    30 2   
    47    24    25 1   
    48    24    49 1   
    49    25    26 1   
    50    25    29 1   
    51    25    50 1   
    52    26    27 1   
    53    26    28 1   
    54    29    51 1   
    55    29    52 1   
    56    29    53 1   
    57    31    32 ar  
    58    31    54 1   
    59    32    55 1   
    60    34    56 1   
    61    36    57 1   
    62    36    58 1   
    63    36    59 1   
@<TRIPOS>SUBSTRUCTURE
     1 LLV         1 TEMP              0 ****  ****    0 ROOT
