@<TRIPOS>MOLECULE
LLX
   38    40     1     0     0
SMALL
No Charge or Current Charge


@<TRIPOS>ATOM
      1 N1          -0.7460     3.4340    -0.3070 nv         1 LLX      -1.075000
      2 C2           0.2530     2.4970    -0.2080 ca         1 LLX       0.280000
      3 C3           1.5830     2.9340    -0.2340 ca         1 LLX      -0.174000
      4 C4           2.6390     2.0130    -0.1550 ca         1 LLX      -0.062000
      5 C5           2.3860     0.6260    -0.0410 cp         1 LLX      -0.067000
      6 C6           1.0340     0.1990    -0.0090 ca         1 LLX      -0.051000
      7 C7          -0.0370     1.1170    -0.0980 ca         1 LLX      -0.109000
      8 N8          -1.3960     0.6840    -0.0290 ns         1 LLX      -0.166000
      9 C9          -1.9910    -0.5400    -0.3180 c          1 LLX       0.612700
     10 O10         -1.3690    -1.4830    -0.7970 o          1 LLX      -0.582100
     11 C11         -3.4780    -0.6430    -0.0220 ca         1 LLX      -0.155600
     12 C12         -4.1650    -1.8430    -0.3250 ca         1 LLX      -0.072500
     13 C13         -5.5400    -1.9710    -0.0640 ca         1 LLX      -0.119500
     14 C14         -6.2520    -0.9040     0.5050 ca         1 LLX      -0.088000
     15 C15         -5.5860     0.2910     0.8140 ca         1 LLX      -0.119500
     16 C16         -4.2100     0.4260     0.5540 ca         1 LLX      -0.072500
     17 C17          3.5100    -0.3610     0.0530 cp         1 LLX      -0.024000
     18 C18          4.7100    -0.0420     0.7390 ca         1 LLX      -0.103000
     19 C19          5.7640    -0.9680     0.8270 ca         1 LLX      -0.111500
     20 C20          5.6410    -2.2320     0.2300 ca         1 LLX      -0.110000
     21 C21          4.4640    -2.5700    -0.4540 ca         1 LLX      -0.111500
     22 C22          3.4090    -1.6450    -0.5420 ca         1 LLX      -0.103000
     23 HN1         -1.6740     3.1410    -0.5990 hn         1 LLX       0.451000
     24 HN1A        -0.4960     4.3990    -0.5160 hn         1 LLX       0.451000
     25 H3           1.8070     3.9940    -0.3240 ha         1 LLX       0.113000
     26 H4           3.6620     2.3790    -0.1940 ha         1 LLX       0.115000
     27 H6           0.8310    -0.8590     0.1220 ha         1 LLX       0.126000
     28 HN8         -2.0320     1.3850     0.3240 hn         1 LLX       0.160000
     29 H12         -3.6350    -2.6850    -0.7670 ha         1 LLX       0.124500
     30 H13         -6.0540    -2.9000    -0.3030 ha         1 LLX       0.118000
     31 H14         -7.3160    -1.0040     0.7070 ha         1 LLX       0.116000
     32 H15         -6.1370     1.1190     1.2560 ha         1 LLX       0.118000
     33 H16         -3.7320     1.3680     0.8120 ha         1 LLX       0.124500
     34 H18          4.8200     0.9270     1.2190 ha         1 LLX       0.115500
     35 H19          6.6750    -0.7050     1.3610 ha         1 LLX       0.111000
     36 H20          6.4570    -2.9490     0.2980 ha         1 LLX       0.111000
     37 H21          4.3680    -3.5490    -0.9200 ha         1 LLX       0.111000
     38 H22          2.5110    -1.9220    -1.0880 ha         1 LLX       0.115500
@<TRIPOS>BOND
     1     1     2 1   
     2     1    23 1   
     3     1    24 1   
     4     2     3 ar  
     5     2     7 ar  
     6     3     4 ar  
     7     3    25 1   
     8     4     5 ar  
     9     4    26 1   
    10     5     6 ar  
    11     5    17 1   
    12     6     7 ar  
    13     6    27 1   
    14     7     8 1   
    15     8     9 1   
    16     8    28 1   
    17     9    10 2   
    18     9    11 1   
    19    11    12 ar  
    20    11    16 ar  
    21    12    13 ar  
    22    12    29 1   
    23    13    14 ar  
    24    13    30 1   
    25    14    15 ar  
    26    14    31 1   
    27    15    16 ar  
    28    15    32 1   
    29    16    33 1   
    30    17    18 ar  
    31    17    22 ar  
    32    18    19 ar  
    33    18    34 1   
    34    19    20 ar  
    35    19    35 1   
    36    20    21 ar  
    37    20    36 1   
    38    21    22 ar  
    39    21    37 1   
    40    22    38 1   
@<TRIPOS>SUBSTRUCTURE
     1 LLX         1 TEMP              0 ****  ****    0 ROOT
