@<TRIPOS>MOLECULE
LLX
   38    40     1     0     0
SMALL
bcc


@<TRIPOS>ATOM
      1 N1          -0.7900     3.3770    -0.7480 nv         1 LLX      -0.826200
      2 C2           0.2280     2.4750    -0.5510 ca         1 LLX       0.141600
      3 C3           1.5680     2.8340    -0.7340 ca         1 LLX      -0.192000
      4 C4           2.5880     1.9320    -0.5030 ca         1 LLX      -0.080000
      5 C5           2.3260     0.6300    -0.0700 cp         1 LLX      -0.067000
      6 C6           0.9940     0.2800     0.1360 ca         1 LLX      -0.069000
      7 C7          -0.0390     1.1730    -0.0980 ca         1 LLX      -0.016400
      8 N8          -1.3790     0.7990     0.1400 ns         1 LLX      -0.492100
      9 C9          -1.9960    -0.2260    -0.4990 c          1 LLX       0.679700
     10 O10         -1.4570    -0.8750    -1.3790 o          1 LLX      -0.582100
     11 C11         -3.3970    -0.5090    -0.0670 ca         1 LLX      -0.155600
     12 C12         -4.2560    -1.1150    -0.9820 ca         1 LLX      -0.090500
     13 C13         -5.5640    -1.4070    -0.6290 ca         1 LLX      -0.137500
     14 C14         -6.0210    -1.1160     0.6510 ca         1 LLX      -0.106000
     15 C15         -5.1650    -0.5320     1.5740 ca         1 LLX      -0.137500
     16 C16         -3.8590    -0.2260     1.2170 ca         1 LLX      -0.090500
     17 C17          3.4120    -0.3390     0.1660 cp         1 LLX      -0.024000
     18 C18          4.6520     0.0750     0.6570 ca         1 LLX      -0.121000
     19 C19          5.6730    -0.8380     0.8790 ca         1 LLX      -0.129500
     20 C20          5.4760    -2.1880     0.6200 ca         1 LLX      -0.128000
     21 C21          4.2470    -2.6140     0.1320 ca         1 LLX      -0.129500
     22 C22          3.2290    -1.6990    -0.0960 ca         1 LLX      -0.121000
     23 HN1         -1.6810     2.9900    -1.0180 hn         1 LLX       0.395800
     24 HN1A        -0.5510     4.1830    -1.3030 hn         1 LLX       0.395800
     25 H3           1.8060     3.8310    -1.0860 ha         1 LLX       0.131000
     26 H4           3.6080     2.2460    -0.6880 ha         1 LLX       0.133000
     27 H6           0.7440    -0.7030     0.5170 ha         1 LLX       0.144000
     28 HN8         -1.9190     1.3780     0.7660 hn         1 LLX       0.326500
     29 H12         -3.9030    -1.3510    -1.9770 ha         1 LLX       0.142500
     30 H13         -6.2260    -1.8650    -1.3520 ha         1 LLX       0.136000
     31 H14         -7.0400    -1.3510     0.9280 ha         1 LLX       0.134000
     32 H15         -5.5100    -0.3170     2.5760 ha         1 LLX       0.136000
     33 H16         -3.2050     0.2080     1.9630 ha         1 LLX       0.142500
     34 H18          4.8210     1.1200     0.8870 ha         1 LLX       0.133500
     35 H19          6.6240    -0.4920     1.2650 ha         1 LLX       0.129000
     36 H20          6.2700    -2.9010     0.7970 ha         1 LLX       0.129000
     37 H21          4.0810    -3.6620    -0.0820 ha         1 LLX       0.129000
     38 H22          2.2880    -2.0480    -0.5020 ha         1 LLX       0.133500
@<TRIPOS>BOND
     1     1     2 1   
     2     1    23 1   
     3     1    24 1   
     4     2     3 ar  
     5     2     7 ar  
     6     3     4 ar  
     7     3    25 1   
     8     4     5 ar  
     9     4    26 1   
    10     5     6 ar  
    11     5    17 1   
    12     6     7 ar  
    13     6    27 1   
    14     7     8 1   
    15     8     9 1   
    16     8    28 1   
    17     9    10 2   
    18     9    11 1   
    19    11    12 ar  
    20    11    16 ar  
    21    12    13 ar  
    22    12    29 1   
    23    13    14 ar  
    24    13    30 1   
    25    14    15 ar  
    26    14    31 1   
    27    15    16 ar  
    28    15    32 1   
    29    16    33 1   
    30    17    18 ar  
    31    17    22 ar  
    32    18    19 ar  
    33    18    34 1   
    34    19    20 ar  
    35    19    35 1   
    36    20    21 ar  
    37    20    36 1   
    38    21    22 ar  
    39    21    37 1   
    40    22    38 1   
@<TRIPOS>SUBSTRUCTURE
     1 LLX         1 TEMP              0 ****  ****    0 ROOT
