@<TRIPOS>MOLECULE
LLZ
   54    55     1     0     0
SMALL
No Charge or Current Charge


@<TRIPOS>ATOM
      1 C          -26.0930    11.6510     1.6240 c          1 LLZ       0.718000
      2 N          -23.9590    13.1020     2.1340 n8         1 LLZ      -1.004200
      3 O          -25.7810    10.5410     1.2100 o          1 LLZ      -0.732500
      4 C1         -32.4270     7.7050     9.8690 ca         1 LLZ      -0.052000
      5 O1         -27.4590     8.6980    10.6910 o          1 LLZ      -0.539100
      6 C2         -33.7070     7.5700     9.3020 ca         1 LLZ      -0.189000
      7 C3         -33.9880     8.1480     8.0440 ca         1 LLZ       0.145100
      8 O3         -35.2240     8.0470     7.4400 os         1 LLZ      -0.343100
      9 C4         -32.9830     8.8570     7.3670 ca         1 LLZ      -0.155000
     10 C5         -31.7020     8.9930     7.9320 ca         1 LLZ       0.019000
     11 C6         -31.4220     8.4170     9.1870 ca         1 LLZ      -0.089000
     12 C7         -30.1400     8.5530     9.7520 ca         1 LLZ      -0.031000
     13 C8         -29.1220     9.2680     9.0800 ca         1 LLZ      -0.182600
     14 C9         -29.4180     9.8390     7.8170 ca         1 LLZ      -0.062000
     15 CA         -25.1350    12.3430     2.6930 c3         1 LLZ       0.022500
     16 CB         -25.9300    13.2280     3.7010 c3         1 LLZ      -0.049400
     17 CD         -24.5630    12.6180     5.8670 c3         1 LLZ      -0.067400
     18 CE         -25.6320    11.6860     6.4790 c3         1 LLZ       0.161800
     19 CG         -25.1380    13.7230     4.9440 c3         1 LLZ      -0.075400
     20 NZ         -24.9970    10.7320     7.4140 n7         1 LLZ      -0.887400
     21 C10        -30.6970     9.7010     7.2530 ca         1 LLZ      -0.120000
     22 C12        -26.7180    10.3680     9.1530 c3         1 LLZ      -0.176400
     23 C13        -25.8840     9.7240     8.0200 c3         1 LLZ       0.195500
     24 C14        -25.0080     8.5500     8.5050 c3         1 LLZ      -0.097100
     25 C31        -36.3210     7.3430     8.0500 c3         1 LLZ       0.152900
     26 OXT        -27.1010    12.2390     1.2480 o          1 LLZ      -0.732500
     27 HN         -23.3630    13.4100     2.9100 hn         1 LLZ       0.381000
     28 HNA        -23.3630    12.4520     1.6070 hn         1 LLZ       0.381000
     29 H4         -33.2030     9.3000     6.3990 ha         1 LLZ       0.130000
     30 H7         -29.9390     8.1030    10.7230 ha         1 LLZ       0.127000
     31 H9         -28.6680    10.3860     7.2520 ha         1 LLZ       0.127000
     32 HA         -24.7020    11.5160     3.2710 h1         1 LLZ      -0.005300
     33 HB         -26.3240    14.1040     3.1700 hc         1 LLZ       0.043200
     34 HBA        -26.8080    12.6680     4.0450 hc         1 LLZ       0.043200
     35 HD         -24.0160    13.1070     6.6820 hc         1 LLZ       0.032700
     36 HDA        -23.8270    12.0210     5.3160 hc         1 LLZ       0.032700
     37 HE         -26.3810    12.3020     6.9930 h1         1 LLZ       0.037700
     38 HEA        -26.1400    11.1420     5.6710 h1         1 LLZ       0.037700
     39 HG         -24.3150    14.3700     4.6160 hc         1 LLZ       0.023200
     40 HGA        -25.8010    14.3610     5.5410 hc         1 LLZ       0.023200
     41 HNZ        -24.2810    10.2260     6.8820 hn         1 LLZ       0.417000
     42 H10        -30.9050    10.1460     6.2820 ha         1 LLZ       0.122000
     43 H12        -27.2480    11.2310     8.7410 hc         1 LLZ       0.076700
     44 H12A       -26.0440    10.6940     9.9530 hc         1 LLZ       0.076700
     45 H13        -26.5640     9.3280     7.2540 h1         1 LLZ       0.017700
     46 H14        -25.6270     7.7280     8.8800 hc         1 LLZ       0.037700
     47 H14A       -24.4000     8.1540     7.6820 hc         1 LLZ       0.037700
     48 H14B       -24.3330     8.8680     9.3090 hc         1 LLZ       0.037700
     49 H31        -37.2060     7.3860     7.4030 h1         1 LLZ       0.038700
     50 H31A       -36.0670     6.2880     8.2090 h1         1 LLZ       0.038700
     51 H31B       -36.5840     7.7930     9.0160 h1         1 LLZ       0.038700
     52 C11        -27.7510     9.3900     9.7220 c          1 LLZ       0.587700
     53 H1         -32.2200     7.2560    10.8380 ha         1 LLZ       0.113000
     54 H2         -34.4620     7.0160     9.8510 ha         1 LLZ       0.113000
@<TRIPOS>BOND
     1     1     3 1   
     2     1    15 1   
     3     1    26 1   
     4     2    15 1   
     5     2    27 1   
     6     2    28 1   
     7     4     6 ar  
     8     4    11 ar  
     9     4    53 1   
    10     5    52 2   
    11     6     7 ar  
    12     6    54 1   
    13     7     8 1   
    14     7     9 ar  
    15     8    25 1   
    16     9    10 ar  
    17     9    29 1   
    18    10    11 ar  
    19    10    21 ar  
    20    11    12 ar  
    21    12    13 ar  
    22    12    30 1   
    23    13    14 ar  
    24    13    52 1   
    25    14    21 ar  
    26    14    31 1   
    27    15    16 1   
    28    15    32 1   
    29    16    19 1   
    30    16    33 1   
    31    16    34 1   
    32    17    18 1   
    33    17    19 1   
    34    17    35 1   
    35    17    36 1   
    36    18    20 1   
    37    18    37 1   
    38    18    38 1   
    39    19    39 1   
    40    19    40 1   
    41    20    23 1   
    42    20    41 1   
    43    21    42 1   
    44    22    23 1   
    45    22    43 1   
    46    22    44 1   
    47    22    52 1   
    48    23    24 1   
    49    23    45 1   
    50    24    46 1   
    51    24    47 1   
    52    24    48 1   
    53    25    49 1   
    54    25    50 1   
    55    25    51 1   
@<TRIPOS>SUBSTRUCTURE
     1 LLZ         1 TEMP              0 ****  ****    0 ROOT
