@<TRIPOS>MOLECULE
LLZ
   54    55     1     0     0
SMALL
abcg2


@<TRIPOS>ATOM
      1 C          -24.0680    12.3940     1.4220 c          1 LLZ       0.718000
      2 N          -23.2610    13.7770     3.3180 n8         1 LLZ      -1.004200
      3 O          -23.1260    12.9180     0.7940 o          1 LLZ      -0.732500
      4 C1         -32.2540     7.9520    10.2090 ca         1 LLZ      -0.052000
      5 O1         -27.5740     9.9270    10.6570 o          1 LLZ      -0.539100
      6 C2         -33.5260     7.6580     9.8060 ca         1 LLZ      -0.189000
      7 C3         -34.0010     8.1290     8.5560 ca         1 LLZ       0.145100
      8 O3         -35.2390     7.8850     8.0990 os         1 LLZ      -0.343100
      9 C4         -33.1750     8.8800     7.7480 ca         1 LLZ      -0.155000
     10 C5         -31.8640     9.1890     8.1490 ca         1 LLZ       0.019000
     11 C6         -31.3870     8.7230     9.4030 ca         1 LLZ      -0.089000
     12 C7         -30.0770     9.0400     9.8090 ca         1 LLZ      -0.031000
     13 C8         -29.2370     9.7750     9.0040 ca         1 LLZ      -0.182600
     14 C9         -29.7170    10.2300     7.7480 ca         1 LLZ      -0.062000
     15 CA         -24.1550    12.6900     2.9420 c3         1 LLZ       0.022500
     16 CB         -25.5850    13.0130     3.3750 c3         1 LLZ      -0.049400
     17 CD         -25.2310    12.2130     5.8060 c3         1 LLZ      -0.067400
     18 CE         -25.8960    10.8590     5.5920 c3         1 LLZ       0.161800
     19 CG         -25.7420    13.3050     4.8680 c3         1 LLZ      -0.075400
     20 NZ         -25.4480     9.8560     6.5550 n7         1 LLZ      -0.887400
     21 C10        -30.9890     9.9550     7.3400 ca         1 LLZ      -0.120000
     22 C12        -26.8210    10.4960     8.4770 c3         1 LLZ      -0.176400
     23 C13        -26.4580     9.3770     7.4840 c3         1 LLZ       0.195500
     24 C14        -25.9200     8.1540     8.2140 c3         1 LLZ      -0.097100
     25 C31        -36.1200     7.0950     8.8750 c3         1 LLZ       0.152900
     26 OXT        -24.9300    11.6190     0.9610 o          1 LLZ      -0.732500
     27 HN         -22.9680    13.6710     4.2800 hn         1 LLZ       0.381000
     28 HNA        -22.4280    13.7120     2.7480 hn         1 LLZ       0.381000
     29 H4         -33.5390     9.2370     6.7920 ha         1 LLZ       0.130000
     30 H7         -29.7300     8.6780    10.7700 ha         1 LLZ       0.127000
     31 H9         -29.0790    10.8190     7.1030 ha         1 LLZ       0.127000
     32 HA         -23.8700    11.7420     3.4310 h1         1 LLZ      -0.005300
     33 HB         -25.9340    13.8880     2.8160 hc         1 LLZ       0.043200
     34 HBA        -26.2370    12.1870     3.0890 hc         1 LLZ       0.043200
     35 HD         -25.3920    12.5330     6.8400 hc         1 LLZ       0.032700
     36 HDA        -24.1480    12.0920     5.7000 hc         1 LLZ       0.032700
     37 HE         -26.9880    10.9780     5.6240 h1         1 LLZ       0.037700
     38 HEA        -25.6740    10.5020     4.5830 h1         1 LLZ       0.037700
     39 HG         -25.2330    14.2420     5.1100 hc         1 LLZ       0.023200
     40 HGA        -26.8020    13.4820     5.0780 hc         1 LLZ       0.023200
     41 HNZ        -25.0810     9.0570     6.0580 hn         1 LLZ       0.417000
     42 H10        -31.3430    10.3220     6.3840 ha         1 LLZ       0.122000
     43 H12        -27.1820    11.3720     7.9320 hc         1 LLZ       0.076700
     44 H12A       -25.9200    10.7970     9.0140 hc         1 LLZ       0.076700
     45 H13        -27.3750     9.0780     6.9520 h1         1 LLZ       0.017700
     46 H14        -26.6700     7.7120     8.8700 hc         1 LLZ       0.037700
     47 H14A       -25.6240     7.3830     7.5010 hc         1 LLZ       0.037700
     48 H14B       -25.0480     8.4120     8.8170 hc         1 LLZ       0.037700
     49 H31        -37.0460     7.0260     8.3100 h1         1 LLZ       0.038700
     50 H31A       -35.7320     6.0870     9.0370 h1         1 LLZ       0.038700
     51 H31B       -36.3350     7.5520     9.8440 h1         1 LLZ       0.038700
     52 C11        -27.8580    10.0660     9.4830 c          1 LLZ       0.587700
     53 H1         -31.8980     7.5880    11.1650 ha         1 LLZ       0.113000
     54 H2         -34.1570     7.0640    10.4530 ha         1 LLZ       0.113000
@<TRIPOS>BOND
     1     1     3 1   
     2     1    15 1   
     3     1    26 1   
     4     2    15 1   
     5     2    27 1   
     6     2    28 1   
     7     4     6 ar  
     8     4    11 ar  
     9     4    53 1   
    10     5    52 2   
    11     6     7 ar  
    12     6    54 1   
    13     7     8 1   
    14     7     9 ar  
    15     8    25 1   
    16     9    10 ar  
    17     9    29 1   
    18    10    11 ar  
    19    10    21 ar  
    20    11    12 ar  
    21    12    13 ar  
    22    12    30 1   
    23    13    14 ar  
    24    13    52 1   
    25    14    21 ar  
    26    14    31 1   
    27    15    16 1   
    28    15    32 1   
    29    16    19 1   
    30    16    33 1   
    31    16    34 1   
    32    17    18 1   
    33    17    19 1   
    34    17    35 1   
    35    17    36 1   
    36    18    20 1   
    37    18    37 1   
    38    18    38 1   
    39    19    39 1   
    40    19    40 1   
    41    20    23 1   
    42    20    41 1   
    43    21    42 1   
    44    22    23 1   
    45    22    43 1   
    46    22    44 1   
    47    22    52 1   
    48    23    24 1   
    49    23    45 1   
    50    24    46 1   
    51    24    47 1   
    52    24    48 1   
    53    25    49 1   
    54    25    50 1   
    55    25    51 1   
@<TRIPOS>SUBSTRUCTURE
     1 LLZ         1 TEMP              0 ****  ****    0 ROOT
