@<TRIPOS>MOLECULE
LM0
   37    38     1     0     0
SMALL
abcg2


@<TRIPOS>ATOM
      1 N1           8.4190     1.8280    22.7300 ns         1 LM0      -0.382500
      2 C4          10.1870    -0.4700    23.9240 c6         1 LM0      -0.039100
      3 C5          11.5790    -0.4570    23.3780 ca         1 LM0      -0.078300
      4 C6          11.8360    -1.3480    22.3390 ca         1 LM0      -0.092300
      5 C7          10.7090    -2.2450    21.9180 c6         1 LM0       0.161300
      6 C10         13.0950    -1.3940    21.7590 ca         1 LM0      -0.087000
      7 C13         12.5840     0.3850    23.8310 ca         1 LM0      -0.098000
      8 C9           8.7560    -2.8630    19.8980 c3         1 LM0      -0.172100
      9 O2           7.5010    -1.0540    20.8240 o          1 LM0      -0.604100
     10 N2           9.4520    -1.5090    21.8230 n          1 LM0      -0.401800
     11 C3           9.1620    -0.4640    22.7820 c6         1 LM0       0.043700
     12 C2           9.1820     0.9010    22.0950 c          1 LM0       0.594100
     13 O1           9.8610     1.1540    21.1250 o          1 LM0      -0.551100
     14 N            8.3770     3.1210    22.3150 ns         1 LM0      -0.373500
     15 C1           9.3110     4.0470    22.6710 c          1 LM0       0.615100
     16 O            9.2810     5.1620    22.1890 o          1 LM0      -0.581100
     17 C           10.3380     3.6050    23.6780 c3         1 LM0      -0.177100
     18 C11         14.1030    -0.5550    22.2190 ca         1 LM0      -0.102000
     19 C12         13.8480     0.3330    23.2550 ca         1 LM0      -0.099000
     20 H1           7.8250     1.5740    23.5060 hn         1 LM0       0.334500
     21 H2          10.0050     0.3760    24.5870 hc         1 LM0       0.061700
     22 H3          10.0240    -1.3730    24.5210 hc         1 LM0       0.061700
     23 H4          10.6070    -3.0660    22.6390 h1         1 LM0       0.053700
     24 H5          10.9440    -2.6980    20.9570 h1         1 LM0       0.053700
     25 H6          13.2890    -2.0820    20.9440 ha         1 LM0       0.114000
     26 H7          12.3820     1.0830    24.6350 ha         1 LM0       0.112000
     27 H8           7.8630    -3.0060    19.2960 hc         1 LM0       0.063367
     28 H9           9.5850    -2.6320    19.2260 hc         1 LM0       0.063367
     29 H10          8.9930    -3.8010    20.3990 hc         1 LM0       0.063367
     30 H11          8.1720    -0.6320    23.2140 h1         1 LM0       0.074700
     31 H12          7.7210     3.3530    21.5800 hn         1 LM0       0.336500
     32 H13         10.9290     4.4640    23.9860 hc         1 LM0       0.062033
     33 H14          9.8800     3.1540    24.5580 hc         1 LM0       0.062033
     34 H15         11.0090     2.8630    23.2450 hc         1 LM0       0.062033
     35 H16         15.0850    -0.5920    21.7640 ha         1 LM0       0.117000
     36 H17         14.6310     0.9900    23.6120 ha         1 LM0       0.117000
     37 C8           8.5140    -1.7390    20.8740 c          1 LM0       0.610100
@<TRIPOS>BOND
     1     1    12 1   
     2     1    14 1   
     3     1    20 1   
     4     2     3 1   
     5     2    11 1   
     6     2    21 1   
     7     2    22 1   
     8     3     4 ar  
     9     3     7 ar  
    10     4     5 1   
    11     4     6 ar  
    12     5    10 1   
    13     5    23 1   
    14     5    24 1   
    15     6    18 ar  
    16     6    25 1   
    17     7    19 ar  
    18     7    26 1   
    19     8    27 1   
    20     8    28 1   
    21     8    29 1   
    22     8    37 1   
    23     9    37 2   
    24    10    11 1   
    25    10    37 1   
    26    11    12 1   
    27    11    30 1   
    28    12    13 2   
    29    14    15 1   
    30    14    31 1   
    31    15    16 2   
    32    15    17 1   
    33    17    32 1   
    34    17    33 1   
    35    17    34 1   
    36    18    19 ar  
    37    18    35 1   
    38    19    36 1   
@<TRIPOS>SUBSTRUCTURE
     1 LM0         1 TEMP              0 ****  ****    0 ROOT
