@<TRIPOS>MOLECULE
LM0
   37    38     1     0     0
SMALL
No Charge or Current Charge


@<TRIPOS>ATOM
      1 N1           9.2010     1.8380    22.6880 ns         1 LM0      -0.382500
      2 C4           9.7380    -0.7090    23.8980 c6         1 LM0      -0.039100
      3 C5          11.1920    -0.4970    23.5090 ca         1 LM0      -0.078300
      4 C6          11.6410    -0.9780    22.2620 ca         1 LM0      -0.092300
      5 C7          10.7010    -1.7520    21.3200 c6         1 LM0       0.161300
      6 C10         12.9780    -0.7570    21.8780 ca         1 LM0      -0.087000
      7 C13         12.0730     0.1950    24.3610 ca         1 LM0      -0.098000
      8 C9           8.7750    -3.4850    19.9010 c3         1 LM0      -0.172100
      9 O2           7.0880    -2.2980    21.1100 o          1 LM0      -0.604100
     10 N2           9.2450    -1.7230    21.6640 n          1 LM0      -0.401800
     11 C3           8.8340    -0.6610    22.6390 c6         1 LM0       0.043700
     12 C2           8.6970     0.7520    21.9810 c          1 LM0       0.594100
     13 O1           8.1580     0.9090    20.8910 o          1 LM0      -0.551100
     14 N            8.9980     3.2020    22.2990 ns         1 LM0      -0.373500
     15 C1           9.8330     4.2460    22.6590 c          1 LM0       0.615100
     16 O            9.4960     5.4060    22.4760 o          1 LM0      -0.581100
     17 C           11.1860     3.8790    23.2720 c3         1 LM0      -0.177100
     18 C11         13.8560    -0.0620    22.7280 ca         1 LM0      -0.102000
     19 C12         13.4040     0.4130    23.9700 ca         1 LM0      -0.099000
     20 H1           9.4920     1.6750    23.6480 hn         1 LM0       0.334500
     21 H2           9.4090     0.0180    24.6530 hc         1 LM0       0.061700
     22 H3           9.6390    -1.6950    24.3730 hc         1 LM0       0.061700
     23 H4          11.0420    -2.7960    21.3020 h1         1 LM0       0.053700
     24 H5          10.8260    -1.3530    20.3030 h1         1 LM0       0.053700
     25 H6          13.3380    -1.1250    20.9200 ha         1 LM0       0.114000
     26 H7          11.7280     0.5670    25.3230 ha         1 LM0       0.112000
     27 H8           7.9470    -4.0040    19.4050 hc         1 LM0       0.063367
     28 H9           9.4310    -2.9960    19.1730 hc         1 LM0       0.063367
     29 H10          9.4470    -4.1930    20.3970 hc         1 LM0       0.063367
     30 H11          7.8180    -0.8840    22.9940 h1         1 LM0       0.074700
     31 H12          8.0510     3.4610    22.0350 hn         1 LM0       0.336500
     32 H13         11.8230     4.7550    23.4370 hc         1 LM0       0.062033
     33 H14         11.0180     3.3340    24.2080 hc         1 LM0       0.062033
     34 H15         11.6790     3.1270    22.6450 hc         1 LM0       0.062033
     35 H16         14.8870     0.1060    22.4240 ha         1 LM0       0.117000
     36 H17         14.0840     0.9500    24.6270 ha         1 LM0       0.117000
     37 C8           8.2880    -2.4540    20.9230 c          1 LM0       0.610100
@<TRIPOS>BOND
     1     1    12 1   
     2     1    14 1   
     3     1    20 1   
     4     2     3 1   
     5     2    11 1   
     6     2    21 1   
     7     2    22 1   
     8     3     4 ar  
     9     3     7 ar  
    10     4     5 1   
    11     4     6 ar  
    12     5    10 1   
    13     5    23 1   
    14     5    24 1   
    15     6    18 ar  
    16     6    25 1   
    17     7    19 ar  
    18     7    26 1   
    19     8    27 1   
    20     8    28 1   
    21     8    29 1   
    22     8    37 1   
    23     9    37 2   
    24    10    11 1   
    25    10    37 1   
    26    11    12 1   
    27    11    30 1   
    28    12    13 2   
    29    14    15 1   
    30    14    31 1   
    31    15    16 2   
    32    15    17 1   
    33    17    32 1   
    34    17    33 1   
    35    17    34 1   
    36    18    19 ar  
    37    18    35 1   
    38    19    36 1   
@<TRIPOS>SUBSTRUCTURE
     1 LM0         1 TEMP              0 ****  ****    0 ROOT
