@<TRIPOS>MOLECULE
LM2
   70    72     1     0     0
SMALL
abcg2


@<TRIPOS>ATOM
      1 CA1         -4.7080    -1.0990    -1.1720 c2         1 LM2       0.557200
      2 NA1         -5.4610    -1.6310    -2.0590 n2         1 LM2      -0.441700
      3 OA7         -5.2600    -2.9990    -2.1510 oh         1 LM2      -0.528000
      4 CA2         -4.7880     0.4030    -1.0750 c6         1 LM2       0.118000
      5 OA2         -3.7870     0.9960    -1.8780 oh         1 LM2      -0.658000
      6 CA3         -4.6230     0.8620     0.3730 c6         1 LM2       0.143300
      7 OA3         -5.7490     0.4860     1.1230 oh         1 LM2      -0.716000
      8 CA4         -3.4080     0.2120     1.0370 c6         1 LM2       0.185300
      9 OA4         -2.2360     0.7130     0.4260 os         1 LM2      -0.468000
     10 CA5         -3.3930    -1.3080     0.9060 c6         1 LM2       0.221500
     11 NA5         -3.7620    -1.7390    -0.4330 nu         1 LM2      -0.867400
     12 CA6         -4.2330    -2.0110     1.9710 c3         1 LM2       0.131600
     13 OA6         -3.9630    -3.3930     1.8700 oh         1 LM2      -0.666000
     14 CB1         -1.6680     1.8510     0.9970 c6         1 LM2       0.348300
     15 CB2         -1.0400     2.6690    -0.1300 c6         1 LM2       0.126300
     16 CB3          0.1260     1.8850    -0.7240 c6         1 LM2       0.115300
     17 CB4          1.1130     1.5280     0.3780 c6         1 LM2       0.157300
     18 CB5          0.4070     0.7870     1.5190 c6         1 LM2       0.162300
     19 CB6          1.3190     0.6140     2.7150 c3         1 LM2       0.164600
     20 OB2         -1.9740     3.0670    -1.0930 oh         1 LM2      -0.729000
     21 OB3          0.8220     2.6470    -1.6920 oh         1 LM2      -0.737000
     22 OB4          2.1220     0.7020    -0.1620 os         1 LM2      -0.484000
     23 OB5         -0.7180     1.5300     1.9660 os         1 LM2      -0.455000
     24 OB6          0.6510    -0.1580     3.6850 oh         1 LM2      -0.715000
     25 CD1          3.3940     1.2500    -0.3580 c6         1 LM2       0.362300
     26 CD2          3.9080     0.8320    -1.7360 c6         1 LM2       0.121300
     27 CD3          4.1660    -0.6730    -1.7690 c6         1 LM2       0.143300
     28 CD4          5.1100    -1.0570    -0.6380 c6         1 LM2       0.146300
     29 CD5          4.5600    -0.5450     0.6970 c6         1 LM2       0.156300
     30 CD6          5.5480    -0.7490     1.8260 c3         1 LM2       0.168600
     31 OD2          3.0510     1.1990    -2.7880 oh         1 LM2      -0.740000
     32 OD3          4.7570    -1.0610    -2.9860 oh         1 LM2      -0.720000
     33 OD4          5.2380    -2.4570    -0.5570 os         1 LM2      -0.450000
     34 OD5          4.2880     0.8470     0.6310 os         1 LM2      -0.457000
     35 OD6          4.9270    -0.4050     3.0410 oh         1 LM2      -0.717000
     36 CD7          6.4850    -2.9680    -0.9680 c3         1 LM2       0.150900
     37 HA7         -5.9010    -3.2820    -2.8100 ho         1 LM2       0.464000
     38 HA2         -5.7810     0.7090    -1.4250 h1         1 LM2       0.053700
     39 H7          -4.0350     0.8930    -2.8030 ho         1 LM2       0.466000
     40 HA3         -4.4890     1.9530     0.3820 h1         1 LM2       0.055700
     41 H6          -6.5180     0.9590     0.7900 ho         1 LM2       0.515000
     42 HA4         -3.4170     0.4630     2.1060 h1         1 LM2       0.071700
     43 H1          -2.3560    -1.6170     1.0750 h1         1 LM2       0.094700
     44 HA5         -3.7430    -2.7430    -0.5420 hn         1 LM2       0.500000
     45 HA61        -3.9540    -1.6220     2.9590 h1         1 LM2       0.041700
     46 HA62        -5.2930    -1.7990     1.8190 h1         1 LM2       0.041700
     47 HA6         -4.7010    -3.8750     2.2500 ho         1 LM2       0.450000
     48 HB1         -2.4230     2.4530     1.5190 h2         1 LM2       0.078700
     49 HB2         -0.6440     3.5790     0.3290 h1         1 LM2       0.089700
     50 HB3         -0.2460     0.9550    -1.1760 h1         1 LM2       0.073700
     51 HB4          1.5460     2.4580     0.7780 h1         1 LM2       0.059700
     52 HB5          0.0940    -0.2020     1.1580 h1         1 LM2       0.078700
     53 HB61         2.2450     0.1330     2.3900 h1         1 LM2       0.042200
     54 HB62         1.5920     1.6070     3.0980 h1         1 LM2       0.042200
     55 H5          -2.5030     2.3000    -1.3740 ho         1 LM2       0.543000
     56 H4           0.2050     2.8700    -2.3980 ho         1 LM2       0.528000
     57 HB6          1.2680    -0.3280     4.4020 ho         1 LM2       0.506000
     58 HD1          3.3560     2.3430    -0.2880 h2         1 LM2       0.083700
     59 HD2          4.8730     1.3390    -1.8730 h1         1 LM2       0.067700
     60 HD3          3.2130    -1.2020    -1.6170 h1         1 LM2       0.062700
     61 HD4          6.0880    -0.5840    -0.8200 h1         1 LM2       0.055700
     62 HD5          3.6410    -1.1030     0.9320 h1         1 LM2       0.075700
     63 HD61         5.8660    -1.7980     1.8200 h1         1 LM2       0.032200
     64 HD62         6.4400    -0.1370     1.6330 h1         1 LM2       0.032200
     65 H3           2.2550     1.6380    -2.4450 ho         1 LM2       0.541000
     66 H2           4.1250    -0.8870    -3.6920 ho         1 LM2       0.522000
     67 HD6          5.5450    -0.5910     3.7540 ho         1 LM2       0.503000
     68 HD71         6.4640    -4.0460    -0.8140 h1         1 LM2       0.033033
     69 HD72         6.6870    -2.7750    -2.0250 h1         1 LM2       0.033033
     70 HD73         7.3130    -2.5560    -0.3790 h1         1 LM2       0.033033
@<TRIPOS>BOND
     1     1     2 2   
     2     1     4 1   
     3     1    11 1   
     4     2     3 1   
     5     3    37 1   
     6     4     5 1   
     7     4     6 1   
     8     4    38 1   
     9     5    39 1   
    10     6     7 1   
    11     6     8 1   
    12     6    40 1   
    13     7    41 1   
    14     8     9 1   
    15     8    10 1   
    16     8    42 1   
    17     9    14 1   
    18    10    11 1   
    19    10    12 1   
    20    10    43 1   
    21    11    44 1   
    22    12    13 1   
    23    12    45 1   
    24    12    46 1   
    25    13    47 1   
    26    14    15 1   
    27    14    23 1   
    28    14    48 1   
    29    15    16 1   
    30    15    20 1   
    31    15    49 1   
    32    16    17 1   
    33    16    21 1   
    34    16    50 1   
    35    17    18 1   
    36    17    22 1   
    37    17    51 1   
    38    18    19 1   
    39    18    23 1   
    40    18    52 1   
    41    19    24 1   
    42    19    53 1   
    43    19    54 1   
    44    20    55 1   
    45    21    56 1   
    46    22    25 1   
    47    24    57 1   
    48    25    26 1   
    49    25    34 1   
    50    25    58 1   
    51    26    27 1   
    52    26    31 1   
    53    26    59 1   
    54    27    28 1   
    55    27    32 1   
    56    27    60 1   
    57    28    29 1   
    58    28    33 1   
    59    28    61 1   
    60    29    30 1   
    61    29    34 1   
    62    29    62 1   
    63    30    35 1   
    64    30    63 1   
    65    30    64 1   
    66    31    65 1   
    67    32    66 1   
    68    33    36 1   
    69    35    67 1   
    70    36    68 1   
    71    36    69 1   
    72    36    70 1   
@<TRIPOS>SUBSTRUCTURE
     1 LM2         1 TEMP              0 ****  ****    0 ROOT
