@<TRIPOS>MOLECULE
LM2
   70    72     1     0     0
SMALL
No Charge or Current Charge


@<TRIPOS>ATOM
      1 CA1         -5.2260    -0.7350    -1.2840 c2         1 LM2       0.557200
      2 NA1         -6.0580    -1.1540    -2.1930 n2         1 LM2      -0.441700
      3 OA7         -6.0810    -2.5600    -2.4490 oh         1 LM2      -0.528000
      4 CA2         -5.1260     0.7630    -0.8950 c6         1 LM2       0.118000
      5 OA2         -4.1910     1.4780    -1.7530 oh         1 LM2      -0.658000
      6 CA3         -4.7450     0.9350     0.6110 c6         1 LM2       0.143300
      7 OA3         -5.8630     0.6060     1.4640 oh         1 LM2      -0.716000
      8 CA4         -3.4880     0.0620     0.9660 c6         1 LM2       0.185300
      9 OA4         -2.3120     0.5220     0.2530 os         1 LM2      -0.468000
     10 CA5         -3.7120    -1.4560     0.6380 c6         1 LM2       0.221500
     11 NA5         -4.4000    -1.6630    -0.6630 nu         1 LM2      -0.867400
     12 CA6         -4.4620    -2.2330     1.7730 c3         1 LM2       0.131600
     13 OA6         -4.5240    -3.6520     1.5190 oh         1 LM2      -0.666000
     14 CB1         -1.7120     1.7360     0.7400 c6         1 LM2       0.348300
     15 CB2         -0.9080     2.4400    -0.4030 c6         1 LM2       0.126300
     16 CB3          0.3130     1.5650    -0.8010 c6         1 LM2       0.115300
     17 CB4          1.1860     1.2640     0.4620 c6         1 LM2       0.157300
     18 CB5          0.2910     0.5750     1.5320 c6         1 LM2       0.162300
     19 CB6          1.0750     0.2790     2.8530 c3         1 LM2       0.164600
     20 OB2         -1.7160     2.7000    -1.5780 oh         1 LM2      -0.729000
     21 OB3          1.0400     2.2170    -1.8620 oh         1 LM2      -0.737000
     22 OB4          2.3350     0.4420     0.1430 os         1 LM2      -0.484000
     23 OB5         -0.8480     1.4240     1.8530 os         1 LM2      -0.455000
     24 OB6          0.2570    -0.3170     3.8810 oh         1 LM2      -0.715000
     25 CD1          3.4850     1.1480    -0.3730 c6         1 LM2       0.362300
     26 CD2          3.9640     0.5650    -1.7420 c6         1 LM2       0.121300
     27 CD3          4.5140    -0.8750    -1.5430 c6         1 LM2       0.143300
     28 CD4          5.6230    -0.8990    -0.4290 c6         1 LM2       0.146300
     29 CD5          5.0510    -0.2470     0.8700 c6         1 LM2       0.156300
     30 CD6          6.1260    -0.1440     2.0030 c3         1 LM2       0.168600
     31 OD2          2.9230     0.5520    -2.7520 oh         1 LM2      -0.740000
     32 OD3          4.9580    -1.3520    -2.8260 oh         1 LM2      -0.720000
     33 OD4          6.1180    -2.2330    -0.1200 os         1 LM2      -0.450000
     34 OD5          4.5440     1.0900     0.6010 os         1 LM2      -0.457000
     35 OD6          5.6340     0.4860     3.2040 oh         1 LM2      -0.717000
     36 CD7          6.9080    -2.9210    -1.1090 c3         1 LM2       0.150900
     37 HA7         -6.7570    -2.6910    -3.1600 ho         1 LM2       0.464000
     38 HA2         -6.1240     1.2030    -1.0290 h1         1 LM2       0.053700
     39 H7          -4.5210     1.3620    -2.6750 ho         1 LM2       0.466000
     40 HA3         -4.4910     1.9930     0.7710 h1         1 LM2       0.055700
     41 H6          -6.4850     1.3720     1.4470 ho         1 LM2       0.515000
     42 HA4         -3.2810     0.1510     2.0430 h1         1 LM2       0.071700
     43 H1          -2.7120    -1.9140     0.5890 h1         1 LM2       0.094700
     44 HA5         -4.6820    -2.6120    -0.8990 hn         1 LM2       0.500000
     45 HA61        -3.9410    -2.0450     2.7210 h1         1 LM2       0.041700
     46 HA62        -5.4790    -1.8340     1.8730 h1         1 LM2       0.041700
     47 HA6         -5.0290    -4.0580     2.2590 ho         1 LM2       0.450000
     48 HB1         -2.4910     2.4340     1.0790 h2         1 LM2       0.078700
     49 HB2         -0.5290     3.3900     0.0060 h1         1 LM2       0.089700
     50 HB3         -0.0730     0.6020    -1.1670 h1         1 LM2       0.073700
     51 HB4          1.5410     2.2130     0.8900 h1         1 LM2       0.059700
     52 HB5         -0.0740    -0.3840     1.1360 h1         1 LM2       0.078700
     53 HB61         1.9160    -0.3860     2.6120 h1         1 LM2       0.042200
     54 HB62         1.5040     1.2250     3.2120 h1         1 LM2       0.042200
     55 H5          -2.5320     2.1240    -1.5140 ho         1 LM2       0.543000
     56 H4           0.3420     2.7390    -2.3380 ho         1 LM2       0.528000
     57 HB6          0.8180    -0.3970     4.6870 ho         1 LM2       0.506000
     58 HD1          3.2290     2.2070    -0.5330 h2         1 LM2       0.083700
     59 HD2          4.7950     1.2030    -2.0830 h1         1 LM2       0.067700
     60 HD3          3.6810    -1.5030    -1.1890 h1         1 LM2       0.062700
     61 HD4          6.4740    -0.2880    -0.7660 h1         1 LM2       0.055700
     62 HD5          4.2280    -0.8710     1.2480 h1         1 LM2       0.075700
     63 HD61         6.4810    -1.1570     2.2350 h1         1 LM2       0.032200
     64 HD62         6.9840     0.4170     1.6090 h1         1 LM2       0.032200
     65 H3           2.1940     1.1570    -2.4100 ho         1 LM2       0.541000
     66 H2           4.3060    -0.9520    -3.4540 ho         1 LM2       0.522000
     67 HD6          6.4000     0.5680     3.8190 ho         1 LM2       0.503000
     68 HD71         7.4030    -3.7900    -0.6570 h1         1 LM2       0.033033
     69 HD72         6.2840    -3.2910    -1.9310 h1         1 LM2       0.033033
     70 HD73         7.6850    -2.2630    -1.5200 h1         1 LM2       0.033033
@<TRIPOS>BOND
     1     1     2 2   
     2     1     4 1   
     3     1    11 1   
     4     2     3 1   
     5     3    37 1   
     6     4     5 1   
     7     4     6 1   
     8     4    38 1   
     9     5    39 1   
    10     6     7 1   
    11     6     8 1   
    12     6    40 1   
    13     7    41 1   
    14     8     9 1   
    15     8    10 1   
    16     8    42 1   
    17     9    14 1   
    18    10    11 1   
    19    10    12 1   
    20    10    43 1   
    21    11    44 1   
    22    12    13 1   
    23    12    45 1   
    24    12    46 1   
    25    13    47 1   
    26    14    15 1   
    27    14    23 1   
    28    14    48 1   
    29    15    16 1   
    30    15    20 1   
    31    15    49 1   
    32    16    17 1   
    33    16    21 1   
    34    16    50 1   
    35    17    18 1   
    36    17    22 1   
    37    17    51 1   
    38    18    19 1   
    39    18    23 1   
    40    18    52 1   
    41    19    24 1   
    42    19    53 1   
    43    19    54 1   
    44    20    55 1   
    45    21    56 1   
    46    22    25 1   
    47    24    57 1   
    48    25    26 1   
    49    25    34 1   
    50    25    58 1   
    51    26    27 1   
    52    26    31 1   
    53    26    59 1   
    54    27    28 1   
    55    27    32 1   
    56    27    60 1   
    57    28    29 1   
    58    28    33 1   
    59    28    61 1   
    60    29    30 1   
    61    29    34 1   
    62    29    62 1   
    63    30    35 1   
    64    30    63 1   
    65    30    64 1   
    66    31    65 1   
    67    32    66 1   
    68    33    36 1   
    69    35    67 1   
    70    36    68 1   
    71    36    69 1   
    72    36    70 1   
@<TRIPOS>SUBSTRUCTURE
     1 LM2         1 TEMP              0 ****  ****    0 ROOT
