@<TRIPOS>MOLECULE
LM3
   43    46     1     0     0
SMALL
bcc


@<TRIPOS>ATOM
      1 C3           5.2730    -0.3710    -0.3530 c3         1 LM3       0.223100
      2 N2           4.3060    -1.3370     0.1200 nh         1 LM3      -0.786300
      3 C1           4.7090    -2.7020     0.3880 c3         1 LM3       0.223100
      4 C4           3.0030    -1.0010     0.2120 ca         1 LM3       0.626200
      5 N9           2.1600    -1.9520     0.6280 nb         1 LM3      -0.403000
      6 N8           0.8880    -1.6910     0.7780 nb         1 LM3      -0.265000
      7 C7           0.3770    -0.5060     0.5070 cp         1 LM3       0.354800
      8 C6           1.1880     0.5390     0.0140 cq         1 LM3      -0.065300
      9 C10          0.6400     1.8530    -0.3690 cq         1 LM3      -0.008000
     10 C21          1.2260     3.0290     0.0860 ca         1 LM3      -0.228300
     11 C20          0.6920     4.2440    -0.3170 ca         1 LM3       0.398200
     12 N19         -0.3540     4.3530    -1.1270 nb         1 LM3      -0.659000
     13 C18         -0.9070     3.2280    -1.5660 ca         1 LM3       0.398200
     14 C17         -0.4570     1.9650    -1.2190 ca         1 LM3      -0.228300
     15 C5           2.5280     0.2850    -0.1270 ca         1 LM3      -0.262300
     16 C11         -1.0640    -0.3250     0.7970 cp         1 LM3      -0.118500
     17 C16         -2.0590    -1.0560     0.0870 ca         1 LM3      -0.013000
     18 C25         -1.7480    -1.9480    -0.9690 ca         1 LM3      -0.108000
     19 C24         -2.7370    -2.6170    -1.6370 ca         1 LM3      -0.128000
     20 C23         -4.0900    -2.4360    -1.2860 ca         1 LM3      -0.124000
     21 C22         -4.4240    -1.5730    -0.2790 ca         1 LM3      -0.119000
     22 C15         -3.4260    -0.8580     0.4240 ca         1 LM3      -0.040000
     23 C14         -3.7670     0.0580     1.4460 ca         1 LM3      -0.110000
     24 C13         -2.7940     0.7560     2.1040 ca         1 LM3      -0.127000
     25 C12         -1.4400     0.5620     1.7740 ca         1 LM3      -0.106000
     26 H1           5.1150    -0.1000    -1.4000 h1         1 LM3       0.042700
     27 H2           5.2530     0.5430     0.2440 h1         1 LM3       0.042700
     28 H3           6.2690    -0.7930    -0.2650 h1         1 LM3       0.042700
     29 H4           4.4650    -3.0030     1.4080 h1         1 LM3       0.042700
     30 H5           4.2300    -3.4110    -0.2910 h1         1 LM3       0.042700
     31 H6           5.7840    -2.7800     0.2590 h1         1 LM3       0.042700
     32 H7           2.0730     3.0070     0.7590 ha         1 LM3       0.148500
     33 H8           1.1330     5.1700     0.0350 h4         1 LM3       0.021600
     34 H9          -1.7570     3.3310    -2.2310 h4         1 LM3       0.021600
     35 H10         -0.9510     1.0910    -1.6210 ha         1 LM3       0.148500
     36 H11          3.1850     1.0470    -0.5230 ha         1 LM3       0.150000
     37 H12         -0.7170    -2.1030    -1.2550 ha         1 LM3       0.139000
     38 H13         -2.4810    -3.2900    -2.4460 ha         1 LM3       0.131000
     39 H14         -4.8600    -2.9770    -1.8190 ha         1 LM3       0.131000
     40 H15         -5.4620    -1.4220    -0.0080 ha         1 LM3       0.130000
     41 H16         -4.8110     0.1980     1.6980 ha         1 LM3       0.132000
     42 H17         -3.0560     1.4570     2.8850 ha         1 LM3       0.133000
     43 H18         -0.6840     1.1220     2.3110 ha         1 LM3       0.133000
@<TRIPOS>BOND
     1     1     2 1   
     2     1    26 1   
     3     1    27 1   
     4     1    28 1   
     5     2     3 1   
     6     2     4 1   
     7     3    29 1   
     8     3    30 1   
     9     3    31 1   
    10     4     5 ar  
    11     4    15 ar  
    12     5     6 ar  
    13     6     7 ar  
    14     7     8 2   
    15     7    16 1   
    16     8     9 1   
    17     8    15 1   
    18     9    10 1   
    19     9    14 2   
    20    10    11 ar  
    21    10    32 1   
    22    11    12 ar  
    23    11    33 1   
    24    12    13 ar  
    25    13    14 ar  
    26    13    34 1   
    27    14    35 1   
    28    15    36 1   
    29    16    17 ar  
    30    16    25 ar  
    31    17    18 ar  
    32    17    22 ar  
    33    18    19 ar  
    34    18    37 1   
    35    19    20 ar  
    36    19    38 1   
    37    20    21 ar  
    38    20    39 1   
    39    21    22 ar  
    40    21    40 1   
    41    22    23 ar  
    42    23    24 ar  
    43    23    41 1   
    44    24    25 ar  
    45    24    42 1   
    46    25    43 1   
@<TRIPOS>SUBSTRUCTURE
     1 LM3         1 TEMP              0 ****  ****    0 ROOT
