@<TRIPOS>MOLECULE
LM3
   43    46     1     0     0
SMALL
No Charge or Current Charge


@<TRIPOS>ATOM
      1 C3           5.4700    -0.3190    -0.0700 c3         1 LM3       0.223100
      2 N2           4.4070    -1.3390     0.0950 nh         1 LM3      -0.786300
      3 C1           4.8390    -2.7550     0.2220 c3         1 LM3       0.223100
      4 C4           3.0370    -0.9750     0.1620 ca         1 LM3       0.560900
      5 N9           2.1660    -1.9590     0.5090 nb         1 LM3      -0.403000
      6 N8           0.8360    -1.7370     0.6060 nb         1 LM3      -0.265000
      7 C7           0.2880    -0.5260     0.3450 cp         1 LM3       0.289500
      8 C6           1.1970     0.5760    -0.0370 cq         1 LM3       0.000000
      9 C10          0.7010     1.9530    -0.3950 cq         1 LM3      -0.008000
     10 C21          1.4220     3.1110    -0.0400 ca         1 LM3      -0.145000
     11 C20          0.9220     4.3760    -0.3930 ca         1 LM3       0.332900
     12 N19         -0.2340     4.5520    -1.0710 nb         1 LM3      -0.659000
     13 C18         -0.9270     3.4450    -1.4190 ca         1 LM3       0.332900
     14 C17         -0.5010     2.1430    -1.1080 ca         1 LM3      -0.145000
     15 C5           2.5820     0.3290    -0.1190 ca         1 LM3      -0.179000
     16 C11         -1.1680    -0.3700     0.6650 cp         1 LM3      -0.118500
     17 C16         -2.1940    -1.1480     0.0460 ca         1 LM3      -0.013000
     18 C25         -1.9030    -2.1020    -0.9580 ca         1 LM3      -0.090000
     19 C24         -2.9280    -2.8530    -1.5560 ca         1 LM3      -0.110000
     20 C23         -4.2620    -2.6610    -1.1680 ca         1 LM3      -0.106000
     21 C22         -4.5720    -1.7080    -0.1870 ca         1 LM3      -0.101000
     22 C15         -3.5490    -0.9490     0.4150 ca         1 LM3      -0.040000
     23 C14         -3.8880     0.0160     1.3800 ca         1 LM3      -0.092000
     24 C13         -2.8890     0.7940     1.9780 ca         1 LM3      -0.109000
     25 C12         -1.5470     0.6040     1.6230 ca         1 LM3      -0.088000
     26 H1           5.4480     0.0990    -1.0850 h1         1 LM3       0.042700
     27 H2           5.3360     0.4970     0.6540 h1         1 LM3       0.042700
     28 H3           6.4660    -0.7480     0.1010 h1         1 LM3       0.042700
     29 H4           4.6800    -3.1150     1.2470 h1         1 LM3       0.042700
     30 H5           4.2770    -3.3950    -0.4710 h1         1 LM3       0.042700
     31 H6           5.9050    -2.8700    -0.0180 h1         1 LM3       0.042700
     32 H7           2.3510     3.0540     0.5180 ha         1 LM3       0.130500
     33 H8           1.4650     5.2810    -0.1190 h4         1 LM3       0.021600
     34 H9          -1.8520     3.6060    -1.9700 h4         1 LM3       0.021600
     35 H10         -1.1060     1.3040    -1.4380 ha         1 LM3       0.130500
     36 H11          3.2760     1.1030    -0.4240 ha         1 LM3       0.132000
     37 H12         -0.8840    -2.2680    -1.2950 ha         1 LM3       0.121000
     38 H13         -2.6870    -3.5850    -2.3240 ha         1 LM3       0.113000
     39 H14         -5.0550    -3.2440    -1.6320 ha         1 LM3       0.113000
     40 H15         -5.6100    -1.5560     0.1020 ha         1 LM3       0.112000
     41 H16         -4.9280     0.1690     1.6620 ha         1 LM3       0.114000
     42 H17         -3.1540     1.5440     2.7200 ha         1 LM3       0.115000
     43 H18         -0.7820     1.2110     2.1030 ha         1 LM3       0.115000
@<TRIPOS>BOND
     1     1     2 1   
     2     1    26 1   
     3     1    27 1   
     4     1    28 1   
     5     2     3 1   
     6     2     4 1   
     7     3    29 1   
     8     3    30 1   
     9     3    31 1   
    10     4     5 ar  
    11     4    15 ar  
    12     5     6 ar  
    13     6     7 ar  
    14     7     8 2   
    15     7    16 1   
    16     8     9 1   
    17     8    15 1   
    18     9    10 1   
    19     9    14 2   
    20    10    11 ar  
    21    10    32 1   
    22    11    12 ar  
    23    11    33 1   
    24    12    13 ar  
    25    13    14 ar  
    26    13    34 1   
    27    14    35 1   
    28    15    36 1   
    29    16    17 ar  
    30    16    25 ar  
    31    17    18 ar  
    32    17    22 ar  
    33    18    19 ar  
    34    18    37 1   
    35    19    20 ar  
    36    19    38 1   
    37    20    21 ar  
    38    20    39 1   
    39    21    22 ar  
    40    21    40 1   
    41    22    23 ar  
    42    23    24 ar  
    43    23    41 1   
    44    24    25 ar  
    45    24    42 1   
    46    25    43 1   
@<TRIPOS>SUBSTRUCTURE
     1 LM3         1 TEMP              0 ****  ****    0 ROOT
