@<TRIPOS>MOLECULE
LM4
   43    46     1     0     0
SMALL
No Charge or Current Charge


@<TRIPOS>ATOM
      1 C3           5.7840    -0.4590     0.1600 c3         1 LM4       0.223100
      2 N2           4.7120    -1.4650    -0.0280 nh         1 LM4      -0.786300
      3 C1           5.1310    -2.8810    -0.1880 c3         1 LM4       0.223100
      4 C4           3.3410    -1.0970    -0.0110 ca         1 LM4       0.560900
      5 N9           2.4410    -2.1130     0.0210 nb         1 LM4      -0.400000
      6 N8           1.1080    -1.8900     0.0450 nb         1 LM4      -0.275000
      7 C7           0.5840    -0.6400     0.0320 cp         1 LM4       0.298500
      8 C6           1.5290     0.4990    -0.0570 cq         1 LM4       0.000000
      9 C10          1.0880     1.9220    -0.2800 cq         1 LM4      -0.007000
     10 C21          0.0130     2.2330    -1.1360 ca         1 LM4      -0.146000
     11 C20         -0.3620     3.5740    -1.3210 ca         1 LM4       0.333900
     12 N19          0.2670     4.6070    -0.7170 nb         1 LM4      -0.660000
     13 C18          1.3040     4.3150     0.0990 ca         1 LM4       0.333900
     14 C17          1.7450     3.0030     0.3410 ca         1 LM4      -0.146000
     15 C5           2.9150     0.2460    -0.0570 ca         1 LM4      -0.178000
     16 C11         -0.9030    -0.5490     0.2250 cp         1 LM4      -0.137500
     17 C16         -1.7760    -1.5110    -0.3500 ca         1 LM4      -0.061000
     18 C15         -3.1700    -1.4300    -0.1710 ca         1 LM4      -0.043000
     19 C25         -4.0180    -2.3880    -0.7580 ca         1 LM4      -0.092000
     20 C24         -5.4100    -2.3030    -0.5780 ca         1 LM4      -0.111000
     21 C23         -5.9580    -1.2610     0.1900 ca         1 LM4      -0.104000
     22 C22         -5.1140    -0.3030     0.7790 ca         1 LM4      -0.101000
     23 C14         -3.7200    -0.3840     0.6000 ca         1 LM4      -0.030000
     24 C13         -2.8710     0.5680     1.1890 ca         1 LM4      -0.103000
     25 C12         -1.4810     0.4840     1.0070 ca         1 LM4      -0.091000
     26 H1           6.7520    -0.9390     0.3560 h1         1 LM4       0.042700
     27 H2           5.8870     0.1660    -0.7370 h1         1 LM4       0.042700
     28 H3           5.5590     0.1870     1.0190 h1         1 LM4       0.042700
     29 H4           4.8790    -3.4610     0.7090 h1         1 LM4       0.042700
     30 H5           4.6350    -3.3360    -1.0560 h1         1 LM4       0.042700
     31 H6           6.2140    -2.9600    -0.3510 h1         1 LM4       0.042700
     32 H7          -0.5320     1.4590    -1.6670 ha         1 LM4       0.130000
     33 H8          -1.1920     3.8300    -1.9790 h4         1 LM4       0.021600
     34 H9           1.7970     5.1600     0.5780 h4         1 LM4       0.021600
     35 H10          2.5790     2.8470     1.0190 ha         1 LM4       0.130000
     36 H11          3.6360     1.0500    -0.1480 ha         1 LM4       0.132000
     37 H12         -1.3640    -2.3190    -0.9510 ha         1 LM4       0.127000
     38 H13         -3.6030    -3.1980    -1.3540 ha         1 LM4       0.115000
     39 H14         -6.0630    -3.0440    -1.0330 ha         1 LM4       0.113000
     40 H15         -7.0350    -1.1960     0.3300 ha         1 LM4       0.112000
     41 H16         -5.5450     0.5000     1.3730 ha         1 LM4       0.113000
     42 H17         -3.2860     1.3730     1.7920 ha         1 LM4       0.115000
     43 H18         -0.8450     1.2230     1.4890 ha         1 LM4       0.116000
@<TRIPOS>BOND
     1     1     2 1   
     2     1    26 1   
     3     1    27 1   
     4     1    28 1   
     5     2     3 1   
     6     2     4 1   
     7     3    29 1   
     8     3    30 1   
     9     3    31 1   
    10     4     5 ar  
    11     4    15 ar  
    12     5     6 ar  
    13     6     7 ar  
    14     7     8 2   
    15     7    16 1   
    16     8     9 1   
    17     8    15 1   
    18     9    10 1   
    19     9    14 2   
    20    10    11 ar  
    21    10    32 1   
    22    11    12 ar  
    23    11    33 1   
    24    12    13 ar  
    25    13    14 ar  
    26    13    34 1   
    27    14    35 1   
    28    15    36 1   
    29    16    17 ar  
    30    16    25 ar  
    31    17    18 ar  
    32    17    37 1   
    33    18    19 ar  
    34    18    23 ar  
    35    19    20 ar  
    36    19    38 1   
    37    20    21 ar  
    38    20    39 1   
    39    21    22 ar  
    40    21    40 1   
    41    22    23 ar  
    42    22    41 1   
    43    23    24 ar  
    44    24    25 ar  
    45    24    42 1   
    46    25    43 1   
@<TRIPOS>SUBSTRUCTURE
     1 LM4         1 TEMP              0 ****  ****    0 ROOT
