@<TRIPOS>MOLECULE
LM4
   43    46     1     0     0
SMALL
abcg2


@<TRIPOS>ATOM
      1 C3           5.6230    -0.4310    -0.1330 c3         1 LM4       0.223100
      2 N2           4.6110    -1.4570    -0.0130 nh         1 LM4      -0.786300
      3 C1           4.9870    -2.8560     0.0040 c3         1 LM4       0.223100
      4 C4           3.3050    -1.1210     0.0010 ca         1 LM4       0.560900
      5 N9           2.4210    -2.1180     0.1100 nb         1 LM4      -0.400000
      6 N8           1.1430    -1.8630     0.1870 nb         1 LM4      -0.275000
      7 C7           0.6580    -0.6360     0.1290 cp         1 LM4       0.298500
      8 C6           1.5200     0.4680    -0.0640 cq         1 LM4       0.000000
      9 C10          1.0340     1.8470    -0.2670 cq         1 LM4      -0.007000
     10 C21          0.0700     2.1410    -1.2260 ca         1 LM4      -0.146000
     11 C20         -0.3250     3.4590    -1.3920 ca         1 LM4       0.333900
     12 N19          0.1600     4.4680    -0.6770 nb         1 LM4      -0.660000
     13 C18          1.0800     4.1840     0.2360 ca         1 LM4       0.333900
     14 C17          1.5520     2.9020     0.4750 ca         1 LM4      -0.146000
     15 C5           2.8660     0.2160    -0.1150 ca         1 LM4      -0.178000
     16 C11         -0.8070    -0.5200     0.2800 cp         1 LM4      -0.137500
     17 C16         -1.6370    -1.4180    -0.3440 ca         1 LM4      -0.061000
     18 C15         -3.0390    -1.3530    -0.1910 ca         1 LM4      -0.043000
     19 C25         -3.9020    -2.2730    -0.8330 ca         1 LM4      -0.092000
     20 C24         -5.2580    -2.1890    -0.6670 ca         1 LM4      -0.111000
     21 C23         -5.8140    -1.1800     0.1490 ca         1 LM4      -0.104000
     22 C22         -5.0030    -0.2770     0.7820 ca         1 LM4      -0.101000
     23 C14         -3.5990    -0.3410     0.6310 ca         1 LM4      -0.030000
     24 C13         -2.7270     0.5660     1.2780 ca         1 LM4      -0.103000
     25 C12         -1.3750     0.4800     1.1100 ca         1 LM4      -0.091000
     26 H1           6.6020    -0.8820    -0.0030 h1         1 LM4       0.042700
     27 H2           5.6090     0.0590    -1.1110 h1         1 LM4       0.042700
     28 H3           5.5090     0.3360     0.6350 h1         1 LM4       0.042700
     29 H4           4.6150    -3.3630     0.8950 h1         1 LM4       0.042700
     30 H5           4.6070    -3.3920    -0.8680 h1         1 LM4       0.042700
     31 H6           6.0710    -2.9250    -0.0010 h1         1 LM4       0.042700
     32 H7          -0.3660     1.3670    -1.8430 ha         1 LM4       0.130000
     33 H8          -1.0700     3.7070    -2.1400 h4         1 LM4       0.021600
     34 H9           1.4640     5.0160     0.8150 h4         1 LM4       0.021600
     35 H10          2.2990     2.7370     1.2400 ha         1 LM4       0.130000
     36 H11          3.5620     1.0250    -0.2870 ha         1 LM4       0.132000
     37 H12         -1.2160    -2.1900    -0.9780 ha         1 LM4       0.127000
     38 H13         -3.4730    -3.0470    -1.4570 ha         1 LM4       0.115000
     39 H14         -5.9090    -2.8980    -1.1600 ha         1 LM4       0.113000
     40 H15         -6.8880    -1.1250     0.2730 ha         1 LM4       0.112000
     41 H16         -5.4310     0.4970     1.4070 ha         1 LM4       0.113000
     42 H17         -3.1460     1.3300     1.9210 ha         1 LM4       0.115000
     43 H18         -0.7300     1.1710     1.6350 ha         1 LM4       0.116000
@<TRIPOS>BOND
     1     1     2 1   
     2     1    26 1   
     3     1    27 1   
     4     1    28 1   
     5     2     3 1   
     6     2     4 1   
     7     3    29 1   
     8     3    30 1   
     9     3    31 1   
    10     4     5 ar  
    11     4    15 ar  
    12     5     6 ar  
    13     6     7 ar  
    14     7     8 2   
    15     7    16 1   
    16     8     9 1   
    17     8    15 1   
    18     9    10 1   
    19     9    14 2   
    20    10    11 ar  
    21    10    32 1   
    22    11    12 ar  
    23    11    33 1   
    24    12    13 ar  
    25    13    14 ar  
    26    13    34 1   
    27    14    35 1   
    28    15    36 1   
    29    16    17 ar  
    30    16    25 ar  
    31    17    18 ar  
    32    17    37 1   
    33    18    19 ar  
    34    18    23 ar  
    35    19    20 ar  
    36    19    38 1   
    37    20    21 ar  
    38    20    39 1   
    39    21    22 ar  
    40    21    40 1   
    41    22    23 ar  
    42    22    41 1   
    43    23    24 ar  
    44    24    25 ar  
    45    24    42 1   
    46    25    43 1   
@<TRIPOS>SUBSTRUCTURE
     1 LM4         1 TEMP              0 ****  ****    0 ROOT
