@<TRIPOS>MOLECULE
LM5
   36    37     1     0     0
SMALL
No Charge or Current Charge


@<TRIPOS>ATOM
      1 CAN         -3.8920    -0.5110    -1.0010 ca         1 LM5      -0.100000
      2 CAO         -4.9370     0.3880    -1.2790 ca         1 LM5      -0.110000
      3 CAP         -5.2690     1.3900    -0.3510 ca         1 LM5      -0.106000
      4 CAQ         -4.5540     1.4940     0.8540 ca         1 LM5      -0.110000
      5 CAR         -3.5090     0.5950     1.1320 ca         1 LM5      -0.100000
      6 CAM         -3.1740    -0.4130     0.2070 ca         1 LM5      -0.109300
      7 CAL         -2.0400    -1.3810     0.5070 c3         1 LM5       0.144300
      8 N1          -0.7610    -0.8410     0.0580 ns         1 LM5      -0.502900
      9 C            0.4500    -1.4750     0.2200 c          1 LM5       0.579100
     10 O            0.5630    -2.5770     0.7460 o          1 LM5      -0.608100
     11 CA           1.6000    -0.6020    -0.4010 c5         1 LM5       0.096500
     12 N            2.9540    -1.2800    -0.4440 n7         1 LM5      -0.850400
     13 CD1          3.8620    -0.4300     0.3700 c5         1 LM5       0.180500
     14 CAF          5.3370    -0.5930    -0.0510 c3         1 LM5      -0.072100
     15 CG           3.2840     1.0220     0.2430 c5         1 LM5       0.139300
     16 OD2          3.4940     1.6300    -1.0420 oh         1 LM5      -0.636000
     17 CB           1.7790     0.6920     0.4710 c5         1 LM5       0.100300
     18 OG           0.9210     1.7690     0.0590 oh         1 LM5      -0.661000
     19 H1          -3.6400    -1.2820    -1.7260 ha         1 LM5       0.114000
     20 H2          -5.4890     0.3080    -2.2130 ha         1 LM5       0.113500
     21 H3          -6.0770     2.0850    -0.5670 ha         1 LM5       0.113000
     22 H4          -4.8090     2.2700     1.5720 ha         1 LM5       0.113500
     23 H5          -2.9580     0.6840     2.0670 ha         1 LM5       0.114000
     24 H6          -1.9900    -1.5730     1.5870 h1         1 LM5       0.063200
     25 H7          -2.2220    -2.3380     0.0010 h1         1 LM5       0.063200
     26 H9           1.2870    -0.3320    -1.4200 h1         1 LM5       0.100700
     27 H10          2.8870    -2.2170    -0.0190 hn         1 LM5       0.446000
     28 H12          3.7890    -0.7420     1.4220 h1         1 LM5       0.025700
     29 H13          5.4830    -0.3420    -1.1080 hc         1 LM5       0.044700
     30 H14          5.9860     0.0620     0.5430 hc         1 LM5       0.044700
     31 H15          5.6770    -1.6240     0.0990 hc         1 LM5       0.044700
     32 H16          3.6760     1.6720     1.0380 h1         1 LM5       0.043700
     33 H17          2.6030     1.9520    -1.3070 ho         1 LM5       0.451000
     34 H18          1.6100     0.4580     1.5320 h1         1 LM5       0.046700
     35 H19          0.9670     2.4640     0.7560 ho         1 LM5       0.453000
     36 H20         -0.7420     0.0890    -0.3470 hn         1 LM5       0.328500
@<TRIPOS>BOND
     1     1     2 ar  
     2     1     6 ar  
     3     1    19 1   
     4     2     3 ar  
     5     2    20 1   
     6     3     4 ar  
     7     3    21 1   
     8     4     5 ar  
     9     4    22 1   
    10     5     6 ar  
    11     5    23 1   
    12     6     7 1   
    13     7     8 1   
    14     7    24 1   
    15     7    25 1   
    16     8     9 1   
    17     8    36 1   
    18     9    10 2   
    19     9    11 1   
    20    11    12 1   
    21    11    17 1   
    22    11    26 1   
    23    12    13 1   
    24    12    27 1   
    25    13    14 1   
    26    13    15 1   
    27    13    28 1   
    28    14    29 1   
    29    14    30 1   
    30    14    31 1   
    31    15    16 1   
    32    15    17 1   
    33    15    32 1   
    34    16    33 1   
    35    17    18 1   
    36    17    34 1   
    37    18    35 1   
@<TRIPOS>SUBSTRUCTURE
     1 LM5         1 TEMP              0 ****  ****    0 ROOT
