@<TRIPOS>MOLECULE
LM5
   36    37     1     0     0
SMALL
bcc


@<TRIPOS>ATOM
      1 CAN         -3.1710    -0.1110    -0.9410 ca         1 LM5      -0.118000
      2 CAO         -4.3030     0.2530    -1.6580 ca         1 LM5      -0.128000
      3 CAP         -5.4640     0.6260    -0.9920 ca         1 LM5      -0.124000
      4 CAQ         -5.4840     0.6340     0.3960 ca         1 LM5      -0.128000
      5 CAR         -4.3490     0.2720     1.1110 ca         1 LM5      -0.118000
      6 CAM         -3.1840    -0.1070     0.4520 ca         1 LM5      -0.109300
      7 CAL         -1.9770    -0.5350     1.2510 c3         1 LM5       0.144300
      8 N1          -0.7340    -0.0970     0.6670 ns         1 LM5      -0.569900
      9 C            0.2780    -0.9120     0.3260 c          1 LM5       0.646100
     10 O            0.2480    -2.1270     0.4620 o          1 LM5      -0.608100
     11 CA           1.4850    -0.1920    -0.2600 c5         1 LM5       0.096500
     12 N            2.5400    -1.0920    -0.6800 n7         1 LM5      -0.795200
     13 CD1          3.7790    -0.7600     0.0350 c5         1 LM5       0.180500
     14 CAF          5.0090    -1.1040    -0.7830 c3         1 LM5      -0.072100
     15 CG           3.6080     0.7140     0.3700 c5         1 LM5       0.116100
     16 OD2          3.8390     1.4990    -0.7720 oh         1 LM5      -0.573800
     17 CB           2.1330     0.7530     0.7700 c5         1 LM5       0.077100
     18 OG           1.5440     2.0270     0.7030 oh         1 LM5      -0.598800
     19 H1          -2.2710    -0.3950    -1.4730 ha         1 LM5       0.132000
     20 H2          -4.2760     0.2460    -2.7400 ha         1 LM5       0.131500
     21 H3          -6.3440     0.9130    -1.5520 ha         1 LM5       0.131000
     22 H4          -6.3810     0.9300     0.9240 ha         1 LM5       0.131500
     23 H5          -4.3700     0.2900     2.1940 ha         1 LM5       0.132000
     24 H6          -2.0650    -0.1570     2.2720 h1         1 LM5       0.063200
     25 H7          -1.9480    -1.6220     1.3240 h1         1 LM5       0.063200
     26 H9           1.1270     0.4130    -1.1050 h1         1 LM5       0.100700
     27 H10          2.2740    -2.0560    -0.5260 hn         1 LM5       0.390800
     28 H12          3.8450    -1.2940     0.9940 h1         1 LM5       0.025700
     29 H13          5.0020    -0.5910    -1.7440 hc         1 LM5       0.044700
     30 H14          5.9220    -0.8320    -0.2500 hc         1 LM5       0.044700
     31 H15          5.0500    -2.1780    -0.9740 hc         1 LM5       0.044700
     32 H16          4.2620     1.0130     1.2010 h1         1 LM5       0.043700
     33 H17          3.3720     2.3340    -0.6530 ho         1 LM5       0.412000
     34 H18          2.0380     0.3280     1.7770 h1         1 LM5       0.046700
     35 H19          1.7150     2.4910     1.5280 ho         1 LM5       0.414000
     36 H20         -0.6000     0.8980     0.5540 hn         1 LM5       0.328500
@<TRIPOS>BOND
     1     1     2 ar  
     2     1     6 ar  
     3     1    19 1   
     4     2     3 ar  
     5     2    20 1   
     6     3     4 ar  
     7     3    21 1   
     8     4     5 ar  
     9     4    22 1   
    10     5     6 ar  
    11     5    23 1   
    12     6     7 1   
    13     7     8 1   
    14     7    24 1   
    15     7    25 1   
    16     8     9 1   
    17     8    36 1   
    18     9    10 2   
    19     9    11 1   
    20    11    12 1   
    21    11    17 1   
    22    11    26 1   
    23    12    13 1   
    24    12    27 1   
    25    13    14 1   
    26    13    15 1   
    27    13    28 1   
    28    14    29 1   
    29    14    30 1   
    30    14    31 1   
    31    15    16 1   
    32    15    17 1   
    33    15    32 1   
    34    16    33 1   
    35    17    18 1   
    36    17    34 1   
    37    18    35 1   
@<TRIPOS>SUBSTRUCTURE
     1 LM5         1 TEMP              0 ****  ****    0 ROOT
