@<TRIPOS>MOLECULE
LM6
   23    23     1     0     0
SMALL
abcg2


@<TRIPOS>ATOM
      1 N1          87.0450    -5.5040    88.2030 na         1 LM6       0.130800
      2 N3          85.8690    -2.5390    89.0750 n7         1 LM6      -0.861400
      3 C4          86.2520    -5.8250    90.2100 cc         1 LM6      -0.221000
      4 C5          86.1370    -5.0310    89.0870 cd         1 LM6      -0.189300
      5 C6          85.2630    -3.8370    88.8380 c3         1 LM6       0.224100
      6 C7          86.3290    -2.3380    90.4340 c3         1 LM6       0.144100
      7 C1          86.4150    -5.9340    85.8580 c3         1 LM6      -0.112100
      8 C2          87.2430    -5.1030    86.8240 c3         1 LM6       0.083600
      9 N2          87.7190    -6.5530    88.6710 nd         1 LM6      -0.524800
     10 C3          87.2530    -6.7540    89.8900 cc         1 LM6       0.237900
     11 H1          86.6320    -2.3840    88.4290 hn         1 LM6       0.409000
     12 H3          85.6920    -5.7360    91.1260 ha         1 LM6       0.143000
     13 H4          84.8770    -3.8550    87.8160 h1         1 LM6       0.064200
     14 H5          84.3920    -3.9260    89.4920 h1         1 LM6       0.064200
     15 H6          86.7290    -1.3290    90.5340 h1         1 LM6       0.034033
     16 H7          85.4850    -2.4280    91.1210 h1         1 LM6       0.034033
     17 H8          87.1010    -3.0400    90.7710 h1         1 LM6       0.034033
     18 H9          86.6150    -5.6210    84.8330 hc         1 LM6       0.049033
     19 H10         86.6600    -6.9920    85.9430 hc         1 LM6       0.049033
     20 H11         85.3480    -5.8110    86.0460 hc         1 LM6       0.049033
     21 H12         88.3060    -5.2000    86.6070 h1         1 LM6       0.061200
     22 H13         86.9960    -4.0470    86.7280 h1         1 LM6       0.061200
     23 H14         87.6510    -7.5510    90.5000 h4         1 LM6       0.036100
@<TRIPOS>BOND
     1     1     4 1   
     2     1     8 1   
     3     1     9 1   
     4     2     5 1   
     5     2     6 1   
     6     2    11 1   
     7     3     4 2   
     8     3    10 1   
     9     3    12 1   
    10     4     5 1   
    11     5    13 1   
    12     5    14 1   
    13     6    15 1   
    14     6    16 1   
    15     6    17 1   
    16     7     8 1   
    17     7    18 1   
    18     7    19 1   
    19     7    20 1   
    20     8    21 1   
    21     8    22 1   
    22     9    10 2   
    23    10    23 1   
@<TRIPOS>SUBSTRUCTURE
     1 LM6         1 TEMP              0 ****  ****    0 ROOT
