@<TRIPOS>MOLECULE
LM6
   23    23     1     0     0
SMALL
No Charge or Current Charge


@<TRIPOS>ATOM
      1 N1          87.0740    -5.5910    88.1670 na         1 LM6       0.130800
      2 N3          85.9070    -2.5580    89.0940 n7         1 LM6      -0.861400
      3 C4          86.3470    -5.7450    90.2210 cc         1 LM6      -0.221000
      4 C5          86.1810    -5.0120    89.0850 cd         1 LM6      -0.189300
      5 C6          85.2560    -3.8520    88.8070 c3         1 LM6       0.224100
      6 C7          86.2190    -2.2920    90.5140 c3         1 LM6       0.144100
      7 C1          86.3330    -5.8890    85.7780 c3         1 LM6      -0.112100
      8 C2          87.2900    -5.1890    86.7640 c3         1 LM6       0.083600
      9 N2          87.7860    -6.6550    88.7140 nd         1 LM6      -0.524800
     10 C3          87.3200    -6.7120    89.9450 cc         1 LM6       0.237900
     11 H1          86.7840    -2.5210    88.5600 hn         1 LM6       0.409000
     12 H3          85.8350    -5.6230    91.1700 ha         1 LM6       0.143000
     13 H4          84.9400    -3.8940    87.7550 h1         1 LM6       0.064200
     14 H5          84.3460    -3.9700    89.4130 h1         1 LM6       0.064200
     15 H6          86.6560    -1.2910    90.6320 h1         1 LM6       0.034033
     16 H7          85.3110    -2.3400    91.1300 h1         1 LM6       0.034033
     17 H8          86.9400    -3.0220    90.9060 h1         1 LM6       0.034033
     18 H9          86.5330    -5.5570    84.7530 hc         1 LM6       0.049033
     19 H10         86.4650    -6.9770    85.8200 hc         1 LM6       0.049033
     20 H11         85.2890    -5.6560    86.0190 hc         1 LM6       0.049033
     21 H12         88.3260    -5.4230    86.4880 h1         1 LM6       0.061200
     22 H13         87.1650    -4.1020    86.6840 h1         1 LM6       0.061200
     23 H14         87.7050    -7.4670    90.6180 h4         1 LM6       0.036100
@<TRIPOS>BOND
     1     1     4 1   
     2     1     8 1   
     3     1     9 1   
     4     2     5 1   
     5     2     6 1   
     6     2    11 1   
     7     3     4 2   
     8     3    10 1   
     9     3    12 1   
    10     4     5 1   
    11     5    13 1   
    12     5    14 1   
    13     6    15 1   
    14     6    16 1   
    15     6    17 1   
    16     7     8 1   
    17     7    18 1   
    18     7    19 1   
    19     7    20 1   
    20     8    21 1   
    21     8    22 1   
    22     9    10 2   
    23    10    23 1   
@<TRIPOS>SUBSTRUCTURE
     1 LM6         1 TEMP              0 ****  ****    0 ROOT
