@<TRIPOS>MOLECULE
LM7
   31    33     1     0     0
SMALL
No Charge or Current Charge


@<TRIPOS>ATOM
      1 O4           3.7380    -1.0140     2.2440 o          1 LM7      -0.406000
      2 N2           4.0620    -0.5850     1.1300 no         1 LM7       0.707200
      3 O3           5.2380    -0.4210     0.7810 o          1 LM7      -0.406000
      4 C6           2.9740    -0.2420     0.1580 ca         1 LM7      -0.299200
      5 C5           3.2410     0.2770    -1.1330 ca         1 LM7       0.252100
      6 O2           4.5060     0.5010    -1.5860 oh         1 LM7      -0.513100
      7 C4           2.1830     0.5730    -2.0020 ca         1 LM7      -0.174000
      8 C3           0.8520     0.3700    -1.6090 ca         1 LM7      -0.005000
      9 C7           1.6230    -0.4450     0.5430 ca         1 LM7       0.011000
     10 C2           0.5560    -0.1260    -0.3240 ca         1 LM7      -0.018400
     11 N1          -0.8150    -0.3710     0.0790 n          1 LM7      -0.228200
     12 C1          -1.2060    -1.6520     0.5420 c          1 LM7       0.628000
     13 O1          -0.4200    -2.5650     0.7390 o          1 LM7      -0.538000
     14 N           -2.5340    -1.8560     0.7320 ns         1 LM7      -0.466500
     15 C8          -1.8050     0.6670    -0.1500 ca         1 LM7       0.121600
     16 C13         -3.1690     0.3650     0.0500 ca         1 LM7      -0.213600
     17 C           -3.5580    -0.9990     0.5170 c          1 LM7       0.598600
     18 O           -4.7150    -1.3400     0.7080 o          1 LM7      -0.517000
     19 C12         -4.1590     1.3470    -0.1650 ca         1 LM7      -0.015000
     20 C11         -3.7940     2.6450    -0.5520 ca         1 LM7      -0.149000
     21 C10         -2.4410     2.9730    -0.7030 ca         1 LM7      -0.045000
     22 C9          -1.4540     1.9960    -0.4930 ca         1 LM7      -0.167000
     23 H1           5.1250     0.2350    -0.8670 ho         1 LM7       0.523000
     24 H2           2.3970     0.9580    -2.9950 ha         1 LM7       0.149000
     25 H3           0.0500     0.5820    -2.3140 ha         1 LM7       0.139000
     26 H4           1.3870    -0.8360     1.5310 ha         1 LM7       0.163000
     27 H5          -2.7910    -2.7760     1.0520 hn         1 LM7       0.348500
     28 H6          -5.2130     1.1120    -0.0220 ha         1 LM7       0.142000
     29 H7          -4.5590     3.4010    -0.7110 ha         1 LM7       0.128000
     30 H8          -2.1540     3.9870    -0.9740 ha         1 LM7       0.121000
     31 H9          -0.4160     2.3020    -0.5770 ha         1 LM7       0.128000
@<TRIPOS>BOND
     1     1     2 1   
     2     2     3 1   
     3     2     4 1   
     4     4     5 ar  
     5     4     9 ar  
     6     5     6 1   
     7     5     7 ar  
     8     6    23 1   
     9     7     8 ar  
    10     7    24 1   
    11     8    10 ar  
    12     8    25 1   
    13     9    10 ar  
    14     9    26 1   
    15    10    11 1   
    16    11    12 1   
    17    11    15 1   
    18    12    13 2   
    19    12    14 1   
    20    14    17 1   
    21    14    27 1   
    22    15    16 ar  
    23    15    22 ar  
    24    16    17 1   
    25    16    19 ar  
    26    17    18 2   
    27    19    20 ar  
    28    19    28 1   
    29    20    21 ar  
    30    20    29 1   
    31    21    22 ar  
    32    21    30 1   
    33    22    31 1   
@<TRIPOS>SUBSTRUCTURE
     1 LM7         1 TEMP              0 ****  ****    0 ROOT
