@<TRIPOS>MOLECULE
LM7
   31    33     1     0     0
SMALL
bcc


@<TRIPOS>ATOM
      1 O4           3.2660     0.2420     2.3920 o          1 LM7      -0.216000
      2 N2           3.6800     0.2640     1.2620 no         1 LM7       0.327200
      3 O3           4.8600     0.4420     0.9940 o          1 LM7      -0.216000
      4 C6           2.7590     0.0770     0.1740 ca         1 LM7      -0.299200
      5 C5           3.2040     0.0970    -1.1630 ca         1 LM7       0.252100
      6 O2           4.4540     0.2800    -1.5490 oh         1 LM7      -0.474100
      7 C4           2.2450    -0.0900    -2.1670 ca         1 LM7      -0.192000
      8 C3           0.9220    -0.2880    -1.8560 ca         1 LM7      -0.023000
      9 C7           1.4150    -0.1260     0.4850 ca         1 LM7      -0.007000
     10 C2           0.5040    -0.3080    -0.5240 ca         1 LM7      -0.018400
     11 N1          -0.8710    -0.5020    -0.2150 n          1 LM7      -0.295200
     12 C1          -1.2870    -1.8010    -0.0450 c          1 LM7       0.837500
     13 O1          -0.5320    -2.7440    -0.1360 o          1 LM7      -0.613500
     14 N           -2.6210    -1.9620     0.2380 ns         1 LM7      -0.600500
     15 C8          -1.7340     0.5870    -0.1270 ca         1 LM7       0.121600
     16 C13         -3.0850     0.3750     0.1580 ca         1 LM7      -0.213600
     17 C           -3.5810    -0.9860     0.3600 c          1 LM7       0.741100
     18 O           -4.7330    -1.2720     0.6130 o          1 LM7      -0.592500
     19 C12         -3.9600     1.4570     0.2500 ca         1 LM7      -0.033000
     20 C11         -3.5030     2.7440     0.0620 ca         1 LM7      -0.167000
     21 C10         -2.1550     2.9500    -0.2230 ca         1 LM7      -0.063000
     22 C9          -1.2720     1.8910    -0.3180 ca         1 LM7      -0.185000
     23 H1           5.0190     0.3970    -0.7620 ho         1 LM7       0.484000
     24 H2           2.5700    -0.0740    -3.1990 ha         1 LM7       0.167000
     25 H3           0.1990    -0.4260    -2.6490 ha         1 LM7       0.157000
     26 H4           1.0880    -0.1390     1.5160 ha         1 LM7       0.181000
     27 H5          -2.9220    -2.9200     0.3670 hn         1 LM7       0.348500
     28 H6          -5.0030     1.2720     0.4690 ha         1 LM7       0.160000
     29 H7          -4.1820     3.5820     0.1350 ha         1 LM7       0.146000
     30 H8          -1.7830     3.9550    -0.3740 ha         1 LM7       0.139000
     31 H9          -0.2330     2.0850    -0.5390 ha         1 LM7       0.146000
@<TRIPOS>BOND
     1     1     2 1   
     2     2     3 1   
     3     2     4 1   
     4     4     5 ar  
     5     4     9 ar  
     6     5     6 1   
     7     5     7 ar  
     8     6    23 1   
     9     7     8 ar  
    10     7    24 1   
    11     8    10 ar  
    12     8    25 1   
    13     9    10 ar  
    14     9    26 1   
    15    10    11 1   
    16    11    12 1   
    17    11    15 1   
    18    12    13 2   
    19    12    14 1   
    20    14    17 1   
    21    14    27 1   
    22    15    16 ar  
    23    15    22 ar  
    24    16    17 1   
    25    16    19 ar  
    26    17    18 2   
    27    19    20 ar  
    28    19    28 1   
    29    20    21 ar  
    30    20    29 1   
    31    21    22 ar  
    32    21    30 1   
    33    22    31 1   
@<TRIPOS>SUBSTRUCTURE
     1 LM7         1 TEMP              0 ****  ****    0 ROOT
