@<TRIPOS>MOLECULE
LM8
   56    55     1     0     0
SMALL
bcc


@<TRIPOS>ATOM
      1 C01          2.8560     0.6800    -0.1450 c2         1 LM8      -0.205200
      2 C02          2.1200    -0.6270    -0.0720 c3         1 LM8      -0.010000
      3 C03          0.8460    -0.4820     0.7090 c2         1 LM8      -0.139200
      4 C04         -0.4000    -0.5690     0.2480 c2         1 LM8      -0.192200
      5 C05         -0.8310    -0.8720    -1.1590 c3         1 LM8      -0.008000
      6 C06         -1.3340    -2.2850    -1.2470 c2         1 LM8      -0.145200
      7 C07         -2.6000    -2.6880    -1.3150 c2         1 LM8      -0.178200
      8 C08         -3.8330    -1.8280    -1.3490 c3         1 LM8       0.004700
      9 C09         -4.5660    -1.9740    -0.0440 c2         1 LM8      -0.152200
     10 C10         -4.8130    -1.0220     0.8550 c2         1 LM8      -0.170200
     11 C11          4.0150     0.9870     0.4350 c2         1 LM8      -0.127200
     12 C12          4.8830     0.1020     1.2730 c3         1 LM8      -0.061200
     13 C13          6.2070    -0.2380     0.5840 c3         1 LM8      -0.048400
     14 C14         -4.4410     0.4260     0.7780 c3         1 LM8      -0.043200
     15 C15         -5.6560     1.3160     0.5060 c3         1 LM8      -0.072400
     16 C16         -5.3190     2.8010     0.5170 c3         1 LM8      -0.077400
     17 C17         -6.5220     3.6910     0.2250 c3         1 LM8      -0.074400
     18 C18         -6.1830     5.1740     0.2590 c3         1 LM8      -0.088100
     19 C19          7.1100    -1.0830     1.4660 c3         1 LM8      -0.205400
     20 C20          8.4670    -1.4850     0.8640 c          1 LM8       0.927600
     21 O21          9.1910    -2.2050     1.5850 o          1 LM8      -0.847300
     22 O22          8.7460    -1.0710    -0.2780 o          1 LM8      -0.847300
     23 C23         -4.7390    -2.2340    -2.5150 c3         1 LM8      -0.079100
     24 H1           2.3590     1.4500    -0.7280 ha         1 LM8       0.102000
     25 H2           1.9160    -0.9800    -1.0860 hc         1 LM8       0.053200
     26 H3           2.7390    -1.3930     0.4020 hc         1 LM8       0.053200
     27 H4           0.9810    -0.2690     1.7660 ha         1 LM8       0.117000
     28 H5          -1.2140    -0.4500     0.9580 ha         1 LM8       0.112000
     29 H6          -1.6050    -0.1620    -1.4570 hc         1 LM8       0.047700
     30 H7          -0.0030    -0.7380    -1.8590 hc         1 LM8       0.047700
     31 H8          -0.5600    -3.0460    -1.2050 ha         1 LM8       0.123000
     32 H9          -2.7880    -3.7600    -1.3320 ha         1 LM8       0.113000
     33 H10         -3.5500    -0.7840    -1.4940 hc         1 LM8       0.056700
     34 H11         -4.9250    -2.9790     0.1680 ha         1 LM8       0.114000
     35 H12         -5.3710    -1.3090     1.7430 ha         1 LM8       0.112000
     36 H13          4.4030     1.9900     0.2720 ha         1 LM8       0.109000
     37 H14          5.0990     0.6110     2.2190 hc         1 LM8       0.033200
     38 H15          4.3660    -0.8230     1.5410 hc         1 LM8       0.033200
     39 H16          5.9950    -0.7630    -0.3520 hc         1 LM8       0.041200
     40 H17          6.7180     0.6870     0.3020 hc         1 LM8       0.041200
     41 H18         -3.9900     0.7270     1.7300 hc         1 LM8       0.046700
     42 H19         -3.6850     0.6040     0.0110 hc         1 LM8       0.046700
     43 H20         -6.0850     1.0410    -0.4630 hc         1 LM8       0.036200
     44 H21         -6.4310     1.1130     1.2520 hc         1 LM8       0.036200
     45 H22         -4.8990     3.0690     1.4920 hc         1 LM8       0.039700
     46 H23         -4.5330     3.0020    -0.2190 hc         1 LM8       0.039700
     47 H24         -6.9340     3.4320    -0.7550 hc         1 LM8       0.034200
     48 H25         -7.3120     3.4790     0.9520 hc         1 LM8       0.034200
     49 H26         -5.4090     5.4200    -0.4710 hc         1 LM8       0.030700
     50 H27         -7.0540     5.7900     0.0350 hc         1 LM8       0.030700
     51 H28         -5.8130     5.4710     1.2420 hc         1 LM8       0.030700
     52 H29          7.2990    -0.5530     2.4080 hc         1 LM8       0.014700
     53 H30          6.5830    -1.9980     1.7620 hc         1 LM8       0.014700
     54 H32         -5.6220    -1.5950    -2.5590 hc         1 LM8       0.031700
     55 H33         -4.2120    -2.1510    -3.4670 hc         1 LM8       0.031700
     56 H34         -5.0780    -3.2670    -2.4110 hc         1 LM8       0.031700
@<TRIPOS>BOND
     1     1     2 1   
     2     1    11 2   
     3     1    24 1   
     4     2     3 1   
     5     2    25 1   
     6     2    26 1   
     7     3     4 2   
     8     3    27 1   
     9     4     5 1   
    10     4    28 1   
    11     5     6 1   
    12     5    29 1   
    13     5    30 1   
    14     6     7 2   
    15     6    31 1   
    16     7     8 1   
    17     7    32 1   
    18     8     9 1   
    19     8    23 1   
    20     8    33 1   
    21     9    10 2   
    22     9    34 1   
    23    10    14 1   
    24    10    35 1   
    25    11    12 1   
    26    11    36 1   
    27    12    13 1   
    28    12    37 1   
    29    12    38 1   
    30    13    19 1   
    31    13    39 1   
    32    13    40 1   
    33    14    15 1   
    34    14    41 1   
    35    14    42 1   
    36    15    16 1   
    37    15    43 1   
    38    15    44 1   
    39    16    17 1   
    40    16    45 1   
    41    16    46 1   
    42    17    18 1   
    43    17    47 1   
    44    17    48 1   
    45    18    49 1   
    46    18    50 1   
    47    18    51 1   
    48    19    20 1   
    49    19    52 1   
    50    19    53 1   
    51    20    21 1   
    52    20    22 1   
    53    23    54 1   
    54    23    55 1   
    55    23    56 1   
@<TRIPOS>SUBSTRUCTURE
     1 LM8         1 TEMP              0 ****  ****    0 ROOT
