@<TRIPOS>MOLECULE
LM8
   56    55     1     0     0
SMALL
No Charge or Current Charge


@<TRIPOS>ATOM
      1 C01          3.0030     1.0820     1.2390 c2         1 LM8      -0.255200
      2 C02          2.2350    -0.1570     0.8160 c3         1 LM8      -0.010000
      3 C03          1.1770    -0.5100     1.8440 c2         1 LM8      -0.189200
      4 C04         -0.0360    -1.0420     1.6080 c2         1 LM8      -0.242200
      5 C05         -0.6160    -1.4320     0.2630 c3         1 LM8      -0.008000
      6 C06         -1.4860    -2.6700     0.3910 c2         1 LM8      -0.195200
      7 C07         -2.7710    -2.8140     0.0160 c2         1 LM8      -0.228200
      8 C08         -3.6680    -1.7610    -0.6160 c3         1 LM8       0.004700
      9 C09         -5.1310    -2.0970    -0.3700 c2         1 LM8      -0.202200
     10 C10         -6.0640    -1.3130     0.2020 c2         1 LM8      -0.220200
     11 C11          4.3280     1.1950     1.4450 c2         1 LM8      -0.177200
     12 C12          5.3700     0.0970     1.3380 c3         1 LM8      -0.061200
     13 C13          5.9510    -0.0200    -0.0870 c3         1 LM8      -0.048400
     14 C14         -5.8680     0.0810     0.7690 c3         1 LM8      -0.043200
     15 C15         -5.9690     1.1730    -0.3170 c3         1 LM8      -0.072400
     16 C16         -5.7590     2.6000     0.2360 c3         1 LM8      -0.077400
     17 C17         -5.8550     3.6900    -0.8530 c3         1 LM8      -0.074400
     18 C18         -5.6440     5.1130    -0.3030 c3         1 LM8      -0.088100
     19 C19          7.0230    -1.1300    -0.2220 c3         1 LM8      -0.205400
     20 C20          7.5550    -1.1790    -1.6650 c          1 LM8       0.717000
     21 O21          6.9740    -1.8900    -2.4710 o          1 LM8      -0.742000
     22 O22          8.5080    -0.4700    -1.9530 o          1 LM8      -0.742000
     23 C23         -3.3930    -1.6380    -2.1280 c3         1 LM8      -0.079100
     24 H1           2.3700     1.9630     1.3590 ha         1 LM8       0.152000
     25 H2           1.7760     0.0270    -0.1630 hc         1 LM8       0.053200
     26 H3           2.9040    -1.0130     0.6750 hc         1 LM8       0.053200
     27 H4           1.4730    -0.2850     2.8710 ha         1 LM8       0.167000
     28 H5          -0.7060    -1.2350     2.4480 ha         1 LM8       0.162000
     29 H6          -1.1820    -0.5870    -0.1450 hc         1 LM8       0.047700
     30 H7           0.1830    -1.6340    -0.4600 hc         1 LM8       0.047700
     31 H8          -0.9620    -3.5190     0.8330 ha         1 LM8       0.173000
     32 H9          -3.2580    -3.7790     0.1670 ha         1 LM8       0.163000
     33 H10         -3.4360    -0.7860    -0.1750 hc         1 LM8       0.056700
     34 H11         -5.4200    -3.0850    -0.7340 ha         1 LM8       0.164000
     35 H12         -7.0860    -1.6840     0.2990 ha         1 LM8       0.162000
     36 H13          4.7430     2.1620     1.7370 ha         1 LM8       0.159000
     37 H14          6.1850     0.2970     2.0450 hc         1 LM8       0.033200
     38 H15          4.9470    -0.8690     1.6360 hc         1 LM8       0.033200
     39 H16          5.1330    -0.2200    -0.7910 hc         1 LM8       0.041200
     40 H17          6.3890     0.9430    -0.3750 hc         1 LM8       0.041200
     41 H18         -6.6200     0.2720     1.5450 hc         1 LM8       0.046700
     42 H19         -4.8960     0.1590     1.2700 hc         1 LM8       0.046700
     43 H20         -5.2210     0.9760    -1.0950 hc         1 LM8       0.036200
     44 H21         -6.9540     1.1110    -0.7960 hc         1 LM8       0.036200
     45 H22         -6.5080     2.7990     1.0130 hc         1 LM8       0.039700
     46 H23         -4.7750     2.6580     0.7180 hc         1 LM8       0.039700
     47 H24         -5.1060     3.4940    -1.6310 hc         1 LM8       0.034200
     48 H25         -6.8390     3.6370    -1.3350 hc         1 LM8       0.034200
     49 H26         -4.6520     5.2090     0.1550 hc         1 LM8       0.030700
     50 H27         -5.7210     5.8510    -1.1110 hc         1 LM8       0.030700
     51 H28         -6.4000     5.3530     0.4540 hc         1 LM8       0.030700
     52 H29          7.8250    -0.8580     0.4740 hc         1 LM8       0.014700
     53 H30          6.5160    -2.0690     0.0330 hc         1 LM8       0.014700
     54 H32         -4.0320    -0.8670    -2.5740 hc         1 LM8       0.031700
     55 H33         -2.3480    -1.3630    -2.3130 hc         1 LM8       0.031700
     56 H34         -3.5940    -2.5880    -2.6390 hc         1 LM8       0.031700
@<TRIPOS>BOND
     1     1     2 1   
     2     1    11 2   
     3     1    24 1   
     4     2     3 1   
     5     2    25 1   
     6     2    26 1   
     7     3     4 2   
     8     3    27 1   
     9     4     5 1   
    10     4    28 1   
    11     5     6 1   
    12     5    29 1   
    13     5    30 1   
    14     6     7 2   
    15     6    31 1   
    16     7     8 1   
    17     7    32 1   
    18     8     9 1   
    19     8    23 1   
    20     8    33 1   
    21     9    10 2   
    22     9    34 1   
    23    10    14 1   
    24    10    35 1   
    25    11    12 1   
    26    11    36 1   
    27    12    13 1   
    28    12    37 1   
    29    12    38 1   
    30    13    19 1   
    31    13    39 1   
    32    13    40 1   
    33    14    15 1   
    34    14    41 1   
    35    14    42 1   
    36    15    16 1   
    37    15    43 1   
    38    15    44 1   
    39    16    17 1   
    40    16    45 1   
    41    16    46 1   
    42    17    18 1   
    43    17    47 1   
    44    17    48 1   
    45    18    49 1   
    46    18    50 1   
    47    18    51 1   
    48    19    20 1   
    49    19    52 1   
    50    19    53 1   
    51    20    21 1   
    52    20    22 1   
    53    23    54 1   
    54    23    55 1   
    55    23    56 1   
@<TRIPOS>SUBSTRUCTURE
     1 LM8         1 TEMP              0 ****  ****    0 ROOT
