@<TRIPOS>MOLECULE
LM9
   28    30     1     0     0
SMALL
No Charge or Current Charge


@<TRIPOS>ATOM
      1 C10          3.0400     5.7440    18.5560 ca         1 LM9       0.158100
      2 C11          6.2240     7.4100    21.4580 ca         1 LM9      -0.085000
      3 C15          2.8570     7.1200    18.2910 ca         1 LM9      -0.174000
      4 C16          1.1290     5.2270    17.1260 ca         1 LM9      -0.070000
      5 C18          1.8170     7.5410    17.4420 ca         1 LM9      -0.067000
      6 C19          0.9570     6.5950    16.8610 ca         1 LM9       0.088000
      7 C1           6.1260     6.4600    18.7830 ca         1 LM9      -0.131500
      8 C2           5.1290     6.0900    19.7250 ca         1 LM9       0.119100
      9 C3           6.1260     5.9680    17.3920 cc         1 LM9       0.547500
     10 C4           7.1580     7.3310    19.2120 ca         1 LM9      -0.066000
     11 O5           4.0580     5.3010    19.3780 os         1 LM9      -0.224200
     12 C6           5.1880     6.5570    21.0490 ca         1 LM9      -0.120000
     13 N7           6.6960     6.7130    16.4000 nc         1 LM9      -0.383000
     14 N8           5.6200     4.8180    17.0050 nd         1 LM9      -0.488800
     15 C9           7.2060     7.7990    20.5360 ca         1 LM9      -0.116000
     16 N12          6.5540     6.0340    15.2990 nd         1 LM9      -0.169800
     17 N13          5.9010     4.8850    15.6650 na         1 LM9       0.112600
     18 C14          2.1670     4.8010    17.9720 ca         1 LM9       0.093000
     19 Cl17         2.3640     3.0760    18.2860 cl         1 LM9      -0.170000
     20 Cl20        -0.3420     7.1250    15.8000 cl         1 LM9      -0.195000
     21 H26          3.5100     7.8660    18.7370 ha         1 LM9       0.134000
     22 H27          0.4610     4.4980    16.6760 ha         1 LM9       0.144000
     23 H28          1.6760     8.6000    17.2360 ha         1 LM9       0.133000
     24 H21          7.9420     7.6390    18.5220 ha         1 LM9       0.141000
     25 H22          4.4170     6.2650    21.7580 ha         1 LM9       0.135000
     26 H23          8.0100     8.4630    20.8480 ha         1 LM9       0.124000
     27 H25          5.6580     4.1550    14.9960 hn         1 LM9       0.410000
     28 H24          6.2620     7.7720    22.4840 ha         1 LM9       0.122000
@<TRIPOS>BOND
     1     1     3 ar  
     2     1    11 1   
     3     1    18 ar  
     4     2    12 ar  
     5     2    15 ar  
     6     2    28 1   
     7     3     5 ar  
     8     3    21 1   
     9     4     6 ar  
    10     4    18 ar  
    11     4    22 1   
    12     5     6 ar  
    13     5    23 1   
    14     6    20 1   
    15     7     8 ar  
    16     7     9 1   
    17     7    10 ar  
    18     8    11 1   
    19     8    12 ar  
    20     9    13 1   
    21     9    14 2   
    22    10    15 ar  
    23    10    24 1   
    24    12    25 1   
    25    13    16 2   
    26    14    17 1   
    27    15    26 1   
    28    16    17 1   
    29    17    27 1   
    30    18    19 1   
@<TRIPOS>SUBSTRUCTURE
     1 LM9         1 TEMP              0 ****  ****    0 ROOT
