@<TRIPOS>MOLECULE
LM9
   28    30     1     0     0
SMALL
abcg2


@<TRIPOS>ATOM
      1 C10          3.0910     5.7560    18.5120 ca         1 LM9       0.158100
      2 C11          6.1060     7.4230    21.3890 ca         1 LM9      -0.085000
      3 C15          2.8870     7.1040    18.2510 ca         1 LM9      -0.174000
      4 C16          1.0970     5.2280    17.2490 ca         1 LM9      -0.070000
      5 C18          1.8010     7.5180    17.4940 ca         1 LM9      -0.067000
      6 C19          0.9140     6.5790    16.9990 ca         1 LM9       0.088000
      7 C1           6.1470     6.4640    18.7580 ca         1 LM9      -0.131500
      8 C2           5.1180     6.1180    19.6370 ca         1 LM9       0.119100
      9 C3           6.2150     5.9800    17.3820 cc         1 LM9       0.547500
     10 C4           7.1530     7.3080    19.2320 ca         1 LM9      -0.066000
     11 O5           4.1180     5.2690    19.2430 os         1 LM9      -0.224200
     12 C6           5.0940     6.5900    20.9380 ca         1 LM9      -0.120000
     13 N7           7.1090     6.4500    16.4870 nc         1 LM9      -0.383000
     14 N8           5.4560     5.0430    16.8410 nd         1 LM9      -0.488800
     15 C9           7.1340     7.7850    20.5310 ca         1 LM9      -0.116000
     16 N12          6.9070     5.8050    15.3890 nd         1 LM9      -0.169800
     17 N13          5.9290     4.9860    15.6280 na         1 LM9       0.112600
     18 C14          2.1870     4.8260    18.0000 ca         1 LM9       0.093000
     19 CL17         2.4370     3.1500    18.3140 cl         1 LM9      -0.170000
     20 CL20        -0.4440     7.0870    16.0540 cl         1 LM9      -0.195000
     21 H26          3.5700     7.8500    18.6350 ha         1 LM9       0.134000
     22 H27          0.4070     4.4910    16.8620 ha         1 LM9       0.144000
     23 H28          1.6570     8.5710    17.2990 ha         1 LM9       0.133000
     24 H21          7.9630     7.5890    18.5720 ha         1 LM9       0.141000
     25 H22          4.2800     6.3020    21.5920 ha         1 LM9       0.135000
     26 H23          7.9280     8.4360    20.8740 ha         1 LM9       0.124000
     27 H25          5.5640     4.3550    14.9250 hn         1 LM9       0.410000
     28 H24          6.0860     7.7900    22.4070 ha         1 LM9       0.122000
@<TRIPOS>BOND
     1     1     3 ar  
     2     1    11 1   
     3     1    18 ar  
     4     2    12 ar  
     5     2    15 ar  
     6     2    28 1   
     7     3     5 ar  
     8     3    21 1   
     9     4     6 ar  
    10     4    18 ar  
    11     4    22 1   
    12     5     6 ar  
    13     5    23 1   
    14     6    20 1   
    15     7     8 ar  
    16     7     9 1   
    17     7    10 ar  
    18     8    11 1   
    19     8    12 ar  
    20     9    13 1   
    21     9    14 2   
    22    10    15 ar  
    23    10    24 1   
    24    12    25 1   
    25    13    16 2   
    26    14    17 1   
    27    15    26 1   
    28    16    17 1   
    29    17    27 1   
    30    18    19 1   
@<TRIPOS>SUBSTRUCTURE
     1 LM9         1 TEMP              0 ****  ****    0 ROOT
