@<TRIPOS>MOLECULE
LMB
   90    89     1     0     0
SMALL
abcg2


@<TRIPOS>ATOM
      1 O6         -46.8340    67.5750    32.6570 o          1 LMB      -0.735000
      2 C24        -46.0550    67.9860    33.5590 c          1 LMB       0.693200
      3 O5         -46.2400    67.8410    34.8020 o          1 LMB      -0.735000
      4 C23        -44.7910    68.7250    33.1930 ce         1 LMB      -0.242200
      5 C22        -44.1030    68.7240    32.0420 c2         1 LMB      -0.165400
      6 C33        -44.4940    67.9700    30.8030 c3         1 LMB      -0.042900
      7 C21        -42.8190    69.5090    31.9380 c3         1 LMB      -0.037200
      8 C20        -42.8200    70.6210    30.8660 c3         1 LMB      -0.090700
      9 C32        -41.4440    71.2850    30.8190 c3         1 LMB      -0.084100
     10 C19        -43.9670    71.6190    31.1030 c3         1 LMB       0.184300
     11 O4         -43.7440    72.4060    32.2820 oh         1 LMB      -0.685000
     12 C18        -44.1810    72.5870    29.9380 c3         1 LMB      -0.152700
     13 C31        -45.2550    73.6470    30.2460 c3         1 LMB      -0.078100
     14 C17        -44.6450    71.8610    28.6860 c          1 LMB       0.568100
     15 O3         -45.4360    70.9380    28.7360 o          1 LMB      -0.504100
     16 C16        -44.0950    72.3770    27.3580 c3         1 LMB      -0.126500
     17 C30        -45.0230    72.0620    26.1850 c3         1 LMB      -0.072100
     18 C15        -42.7440    71.7350    27.1800 c2         1 LMB      -0.212200
     19 C14        -41.5290    72.3080    27.2490 ce         1 LMB      -0.068200
     20 C29        -41.2990    73.7640    27.5370 c3         1 LMB      -0.057900
     21 C13        -40.3550    71.4620    27.0330 ce         1 LMB      -0.188000
     22 C12        -39.0790    71.8590    27.0700 c2         1 LMB      -0.203200
     23 C11        -37.9020    70.9670    26.8380 c3         1 LMB      -0.039200
     24 C10        -36.9330    70.9000    28.0440 c3         1 LMB      -0.022500
     25 C28        -37.6200    70.2930    29.2730 c3         1 LMB      -0.085100
     26 C9         -35.7270    70.0880    27.6720 c2         1 LMB      -0.218200
     27 C8         -34.4380    70.4680    27.6100 ce         1 LMB      -0.066200
     28 C26        -33.3420    69.5020    27.2110 c3         1 LMB      -0.041200
     29 C27        -33.7690    68.0810    26.8640 c3         1 LMB      -0.086100
     30 C7         -34.0250    71.8360    27.9240 ce         1 LMB      -0.200000
     31 C6         -32.7720    72.3050    27.9190 c2         1 LMB      -0.182200
     32 C5         -32.4280    73.7100    28.2990 c3         1 LMB       0.203500
     33 O2         -31.5210    74.2060    27.2940 oh         1 LMB      -0.689000
     34 C4         -31.8290    73.8260    29.7190 c3         1 LMB      -0.093700
     35 C25        -30.5880    72.9510    29.9050 c3         1 LMB      -0.079100
     36 C3         -31.5190    75.2820    30.1010 c3         1 LMB      -0.060400
     37 C2         -32.7130    76.2300    30.0580 c3         1 LMB      -0.207400
     38 C1         -32.4280    77.6760    30.5080 c          1 LMB       0.708000
     39 O1         -33.4150    78.3320    30.9360 o          1 LMB      -0.743000
     40 O7         -31.2540    78.1130    30.3870 o          1 LMB      -0.743000
     41 H2         -44.3730    69.2900    34.0210 ha         1 LMB       0.138000
     42 H3         -45.3010    67.2720    31.0020 hc         1 LMB       0.035700
     43 H4         -44.8260    68.6630    30.0250 hc         1 LMB       0.035700
     44 H5         -43.6260    67.4400    30.3990 hc         1 LMB       0.035700
     45 H6         -42.0030    68.8210    31.6900 hc         1 LMB       0.028200
     46 H7         -42.5730    69.9470    32.9090 hc         1 LMB       0.028200
     47 H8         -43.0040    70.1490    29.8970 hc         1 LMB       0.051700
     48 H9         -40.6770    70.5400    30.6000 hc         1 LMB       0.029367
     49 H10        -41.3870    72.0500    30.0460 hc         1 LMB       0.029367
     50 H11        -41.2030    71.7480    31.7770 hc         1 LMB       0.029367
     51 H12        -44.8940    71.0530    31.2300 h1         1 LMB       0.077700
     52 H13        -43.7890    71.8200    33.0470 ho         1 LMB       0.455000
     53 H14        -43.2480    73.1050    29.7120 hc         1 LMB       0.064700
     54 H15        -44.9330    74.2760    31.0740 hc         1 LMB       0.039367
     55 H16        -45.4320    74.2840    29.3780 hc         1 LMB       0.039367
     56 H17        -46.1960    73.1660    30.5190 hc         1 LMB       0.039367
     57 H18        -43.9830    73.4570    27.4580 hc         1 LMB       0.061700
     58 H19        -46.0140    72.4890    26.3490 hc         1 LMB       0.037700
     59 H20        -44.6120    72.4810    25.2660 hc         1 LMB       0.037700
     60 H21        -45.1330    70.9860    26.0520 hc         1 LMB       0.037700
     61 H22        -42.7880    70.6680    26.9780 ha         1 LMB       0.176000
     62 H23        -42.2260    74.3250    27.6240 hc         1 LMB       0.043033
     63 H24        -40.7430    73.8850    28.4710 hc         1 LMB       0.043033
     64 H25        -40.6960    74.2210    26.7490 hc         1 LMB       0.043033
     65 H26        -40.5660    70.4150    26.8260 ha         1 LMB       0.168000
     66 H27        -38.8450    72.8970    27.2870 ha         1 LMB       0.172000
     67 H28        -38.2390    69.9560    26.5900 hc         1 LMB       0.043200
     68 H29        -37.3350    71.3390    25.9770 hc         1 LMB       0.043200
     69 H30        -36.6470    71.9240    28.2880 hc         1 LMB       0.058700
     70 H31        -36.9420    70.2770    30.1280 hc         1 LMB       0.037367
     71 H32        -38.5070    70.8650    29.5470 hc         1 LMB       0.037367
     72 H33        -37.9340    69.2650    29.0680 hc         1 LMB       0.037367
     73 H34        -35.9650    69.0580    27.4250 ha         1 LMB       0.161000
     74 H35        -32.6050    69.4680    28.0200 hc         1 LMB       0.046700
     75 H36        -32.8060    69.9310    26.3570 hc         1 LMB       0.046700
     76 H37        -32.8940    67.4880    26.5910 hc         1 LMB       0.029367
     77 H38        -34.2540    67.5870    27.7090 hc         1 LMB       0.029367
     78 H39        -34.4620    68.0610    26.0210 hc         1 LMB       0.029367
     79 H40        -34.8120    72.5320    28.1910 ha         1 LMB       0.177000
     80 H41        -31.9360    71.6680    27.6560 ha         1 LMB       0.171000
     81 H42        -33.3460    74.3050    28.2740 h1         1 LMB       0.047700
     82 H43        -31.2780    75.1110    27.5270 ho         1 LMB       0.460000
     83 H44        -32.6140    73.4630    30.3930 hc         1 LMB       0.046700
     84 H45        -30.1970    73.0610    30.9190 hc         1 LMB       0.025033
     85 H46        -30.8080    71.8940    29.7440 hc         1 LMB       0.025033
     86 H47        -29.7990    73.2420    29.2090 hc         1 LMB       0.025033
     87 H48        -30.7180    75.6710    29.4660 hc         1 LMB       0.042200
     88 H49        -31.1060    75.2770    31.1140 hc         1 LMB       0.042200
     89 H50        -33.1030    76.3060    29.0370 hc         1 LMB       0.020200
     90 H51        -33.5330    75.8360    30.6640 hc         1 LMB       0.020200
@<TRIPOS>BOND
     1     1     2 1   
     2     2     3 1   
     3     2     4 1   
     4     4     5 2   
     5     4    41 1   
     6     5     6 1   
     7     5     7 1   
     8     6    42 1   
     9     6    43 1   
    10     6    44 1   
    11     7     8 1   
    12     7    45 1   
    13     7    46 1   
    14     8     9 1   
    15     8    10 1   
    16     8    47 1   
    17     9    48 1   
    18     9    49 1   
    19     9    50 1   
    20    10    11 1   
    21    10    12 1   
    22    10    51 1   
    23    11    52 1   
    24    12    13 1   
    25    12    14 1   
    26    12    53 1   
    27    13    54 1   
    28    13    55 1   
    29    13    56 1   
    30    14    15 2   
    31    14    16 1   
    32    16    17 1   
    33    16    18 1   
    34    16    57 1   
    35    17    58 1   
    36    17    59 1   
    37    17    60 1   
    38    18    19 2   
    39    18    61 1   
    40    19    20 1   
    41    19    21 1   
    42    20    62 1   
    43    20    63 1   
    44    20    64 1   
    45    21    22 2   
    46    21    65 1   
    47    22    23 1   
    48    22    66 1   
    49    23    24 1   
    50    23    67 1   
    51    23    68 1   
    52    24    25 1   
    53    24    26 1   
    54    24    69 1   
    55    25    70 1   
    56    25    71 1   
    57    25    72 1   
    58    26    27 2   
    59    26    73 1   
    60    27    28 1   
    61    27    30 1   
    62    28    29 1   
    63    28    74 1   
    64    28    75 1   
    65    29    76 1   
    66    29    77 1   
    67    29    78 1   
    68    30    31 2   
    69    30    79 1   
    70    31    32 1   
    71    31    80 1   
    72    32    33 1   
    73    32    34 1   
    74    32    81 1   
    75    33    82 1   
    76    34    35 1   
    77    34    36 1   
    78    34    83 1   
    79    35    84 1   
    80    35    85 1   
    81    35    86 1   
    82    36    37 1   
    83    36    87 1   
    84    36    88 1   
    85    37    38 1   
    86    37    89 1   
    87    37    90 1   
    88    38    39 1   
    89    38    40 1   
@<TRIPOS>SUBSTRUCTURE
     1 LMB         1 TEMP              0 ****  ****    0 ROOT
