@<TRIPOS>MOLECULE
LMB
   90    89     1     0     0
SMALL
No Charge or Current Charge


@<TRIPOS>ATOM
      1 O6         -41.9040    67.9750    33.6140 o          1 LMB      -0.735000
      2 C24        -41.9350    69.0690    34.1550 c          1 LMB       0.693200
      3 O5         -42.2620    69.2190    35.3210 o          1 LMB      -0.735000
      4 C23        -41.5740    70.3110    33.3890 ce         1 LMB      -0.242200
      5 C22        -41.1700    70.4310    32.0940 c2         1 LMB      -0.165400
      6 C33        -40.9840    69.2800    31.1110 c3         1 LMB      -0.042900
      7 C21        -40.8670    71.7910    31.4710 c3         1 LMB      -0.037200
      8 C20        -41.9550    72.2730    30.4680 c3         1 LMB      -0.090700
      9 C32        -41.4800    73.5490    29.7220 c3         1 LMB      -0.084100
     10 C19        -43.3720    72.4120    31.1270 c3         1 LMB       0.184300
     11 O4         -43.3430    73.4800    32.0840 oh         1 LMB      -0.685000
     12 C18        -44.5480    72.6570    30.1340 c3         1 LMB      -0.152700
     13 C31        -45.9280    72.7750    30.8370 c3         1 LMB      -0.078100
     14 C17        -44.5980    71.5370    29.0710 c          1 LMB       0.568100
     15 O3         -44.8390    70.3770    29.3880 o          1 LMB      -0.504100
     16 C16        -44.2690    71.9140    27.6020 c3         1 LMB      -0.126500
     17 C30        -45.4240    71.5340    26.6500 c3         1 LMB      -0.072100
     18 C15        -42.9570    71.2720    27.1610 c2         1 LMB      -0.212200
     19 C14        -41.9510    71.8250    26.4430 ce         1 LMB      -0.068200
     20 C29        -42.0260    73.2240    25.8380 c3         1 LMB      -0.057900
     21 C13        -40.7290    71.0370    26.2020 ce         1 LMB      -0.188000
     22 C12        -39.5550    71.5140    25.7290 c2         1 LMB      -0.203200
     23 C11        -38.2920    70.6950    25.5570 c3         1 LMB      -0.039200
     24 C10        -37.2930    70.8680    26.7320 c3         1 LMB      -0.022500
     25 C28        -37.8940    70.4130    28.0850 c3         1 LMB      -0.085100
     26 C9         -35.9880    70.1310    26.4530 c2         1 LMB      -0.218200
     27 C8         -34.7460    70.4010    26.9410 ce         1 LMB      -0.066200
     28 C26        -33.5130    69.5630    26.5700 c3         1 LMB      -0.041200
     29 C27        -33.7380    68.3430    25.6500 c3         1 LMB      -0.086100
     30 C7         -34.5100    71.5240    27.8790 ce         1 LMB      -0.200000
     31 C6         -33.3150    71.9020    28.3920 c2         1 LMB      -0.182200
     32 C5         -33.1040    73.0460    29.3610 c3         1 LMB       0.203500
     33 O2         -31.7450    73.4830    29.2770 oh         1 LMB      -0.689000
     34 C4         -33.4650    72.6650    30.8320 c3         1 LMB      -0.093700
     35 C25        -32.6630    71.4420    31.3510 c3         1 LMB      -0.079100
     36 C3         -33.3610    73.8530    31.8350 c3         1 LMB      -0.060400
     37 C2         -34.2490    75.0800    31.4960 c3         1 LMB      -0.207400
     38 C1         -34.1870    76.1120    32.6370 c          1 LMB       0.708000
     39 O1         -34.9890    76.0110    33.5530 o          1 LMB      -0.743000
     40 O7         -33.3050    76.9570    32.6010 o          1 LMB      -0.743000
     41 H2         -41.6670    71.2130    33.9880 ha         1 LMB       0.138000
     42 H3         -40.3410    68.4980    31.5320 hc         1 LMB       0.035700
     43 H4         -41.9480    68.8260    30.8530 hc         1 LMB       0.035700
     44 H5         -40.5130    69.5990    30.1730 hc         1 LMB       0.035700
     45 H6         -39.8990    71.7460    30.9550 hc         1 LMB       0.028200
     46 H7         -40.7370    72.5480    32.2530 hc         1 LMB       0.028200
     47 H8         -42.0250    71.4880    29.7100 hc         1 LMB       0.051700
     48 H9         -40.5220    73.3650    29.2210 hc         1 LMB       0.029367
     49 H10        -42.1960    73.8530    28.9510 hc         1 LMB       0.029367
     50 H11        -41.3440    74.3880    30.4150 hc         1 LMB       0.029367
     51 H12        -43.5890    71.4650    31.6450 h1         1 LMB       0.077700
     52 H13        -42.5360    73.3460    32.6250 ho         1 LMB       0.455000
     53 H14        -44.3690    73.6130    29.6330 hc         1 LMB       0.064700
     54 H15        -45.9550    73.6370    31.5140 hc         1 LMB       0.039367
     55 H16        -46.7260    72.9080    30.0960 hc         1 LMB       0.039367
     56 H17        -46.1500    71.8740    31.4210 hc         1 LMB       0.039367
     57 H18        -44.1640    73.0020    27.5620 hc         1 LMB       0.061700
     58 H19        -46.3580    72.0150    26.9650 hc         1 LMB       0.037700
     59 H20        -45.2020    71.8570    25.6260 hc         1 LMB       0.037700
     60 H21        -45.5820    70.4480    26.6390 hc         1 LMB       0.037700
     61 H22        -42.8360    70.2540    27.5360 ha         1 LMB       0.176000
     62 H23        -43.0580    73.5550    25.6810 hc         1 LMB       0.043033
     63 H24        -41.5330    73.9600    26.4830 hc         1 LMB       0.043033
     64 H25        -41.5460    73.2650    24.8540 hc         1 LMB       0.043033
     65 H26        -40.7850    69.9830    26.4800 ha         1 LMB       0.168000
     66 H27        -39.4320    72.5660    25.4680 ha         1 LMB       0.172000
     67 H28        -38.5420    69.6330    25.4450 hc         1 LMB       0.043200
     68 H29        -37.7940    70.9920    24.6250 hc         1 LMB       0.043200
     69 H30        -37.0910    71.9430    26.8010 hc         1 LMB       0.058700
     70 H31        -37.1620    70.5240    28.8940 hc         1 LMB       0.037367
     71 H32        -38.7730    71.0120    28.3490 hc         1 LMB       0.037367
     72 H33        -38.1950    69.3600    28.0420 hc         1 LMB       0.037367
     73 H34        -36.1330    69.2920    25.7750 ha         1 LMB       0.161000
     74 H35        -33.0390    69.1930    27.4870 hc         1 LMB       0.046700
     75 H36        -32.7710    70.2080    26.0820 hc         1 LMB       0.046700
     76 H37        -32.7890    67.8220    25.4730 hc         1 LMB       0.029367
     77 H38        -34.4340    67.6300    26.1080 hc         1 LMB       0.029367
     78 H39        -34.1370    68.6540    24.6770 hc         1 LMB       0.029367
     79 H40        -35.3880    72.0900    28.1880 ha         1 LMB       0.177000
     80 H41        -32.3930    71.3820    28.1350 ha         1 LMB       0.171000
     81 H42        -33.7680    73.8630    29.0470 h1         1 LMB       0.047700
     82 H43        -31.6510    74.2130    29.9260 ho         1 LMB       0.460000
     83 H44        -34.5190    72.3580    30.8210 hc         1 LMB       0.046700
     84 H45        -32.9910    71.1650    32.3600 hc         1 LMB       0.025033
     85 H46        -32.8100    70.5680    30.7050 hc         1 LMB       0.025033
     86 H47        -31.5890    71.6620    31.3930 hc         1 LMB       0.025033
     87 H48        -32.3160    74.1750    31.9240 hc         1 LMB       0.042200
     88 H49        -33.6510    73.4890    32.8290 hc         1 LMB       0.042200
     89 H50        -33.8390    75.5160    30.5770 hc         1 LMB       0.020200
     90 H51        -35.2700    74.6940    31.3870 hc         1 LMB       0.020200
@<TRIPOS>BOND
     1     1     2 1   
     2     2     3 1   
     3     2     4 1   
     4     4     5 2   
     5     4    41 1   
     6     5     6 1   
     7     5     7 1   
     8     6    42 1   
     9     6    43 1   
    10     6    44 1   
    11     7     8 1   
    12     7    45 1   
    13     7    46 1   
    14     8     9 1   
    15     8    10 1   
    16     8    47 1   
    17     9    48 1   
    18     9    49 1   
    19     9    50 1   
    20    10    11 1   
    21    10    12 1   
    22    10    51 1   
    23    11    52 1   
    24    12    13 1   
    25    12    14 1   
    26    12    53 1   
    27    13    54 1   
    28    13    55 1   
    29    13    56 1   
    30    14    15 2   
    31    14    16 1   
    32    16    17 1   
    33    16    18 1   
    34    16    57 1   
    35    17    58 1   
    36    17    59 1   
    37    17    60 1   
    38    18    19 2   
    39    18    61 1   
    40    19    20 1   
    41    19    21 1   
    42    20    62 1   
    43    20    63 1   
    44    20    64 1   
    45    21    22 2   
    46    21    65 1   
    47    22    23 1   
    48    22    66 1   
    49    23    24 1   
    50    23    67 1   
    51    23    68 1   
    52    24    25 1   
    53    24    26 1   
    54    24    69 1   
    55    25    70 1   
    56    25    71 1   
    57    25    72 1   
    58    26    27 2   
    59    26    73 1   
    60    27    28 1   
    61    27    30 1   
    62    28    29 1   
    63    28    74 1   
    64    28    75 1   
    65    29    76 1   
    66    29    77 1   
    67    29    78 1   
    68    30    31 2   
    69    30    79 1   
    70    31    32 1   
    71    31    80 1   
    72    32    33 1   
    73    32    34 1   
    74    32    81 1   
    75    33    82 1   
    76    34    35 1   
    77    34    36 1   
    78    34    83 1   
    79    35    84 1   
    80    35    85 1   
    81    35    86 1   
    82    36    37 1   
    83    36    87 1   
    84    36    88 1   
    85    37    38 1   
    86    37    89 1   
    87    37    90 1   
    88    38    39 1   
    89    38    40 1   
@<TRIPOS>SUBSTRUCTURE
     1 LMB         1 TEMP              0 ****  ****    0 ROOT
