@<TRIPOS>MOLECULE
LMC
   41    42     1     0     0
SMALL
No Charge or Current Charge


@<TRIPOS>ATOM
      1 C18          6.6310     0.0650    -0.2930 c          1 LMC       0.572100
      2 C17          5.2590     0.6380    -0.2260 ce         1 LMC      -0.349200
      3 C16          4.0940    -0.0360    -0.0000 cf         1 LMC       0.024800
      4 C20          4.0480    -1.5330     0.2900 c3         1 LMC      -0.072900
      5 C15          2.8280     0.7000     0.0310 cf         1 LMC      -0.248000
      6 C14          1.5680     0.1810     0.0100 ce         1 LMC      -0.096000
      7 C13          0.3520     1.0100     0.0380 ce         1 LMC      -0.312000
      8 C8          -0.9470     0.6170     0.0260 c2         1 LMC       0.166800
      9 C7          -1.4320    -0.8740    -0.0210 c5         1 LMC       0.033500
     10 C11         -1.0340    -1.6150    -1.3270 c3         1 LMC      -0.072100
     11 C10         -1.0190    -1.7020     1.2260 c3         1 LMC      -0.072100
     12 C2          -2.9410    -0.6530    -0.0050 ca         1 LMC      -0.145300
     13 C3          -3.2570     0.6900     0.0390 ca         1 LMC       0.298000
     14 N9          -2.0770     1.4330     0.0560 nh         1 LMC      -0.678200
     15 C12         -2.0360     2.9130     0.1030 c3         1 LMC       0.218100
     16 C1          -3.9560    -1.6270    -0.0300 ca         1 LMC      -0.055000
     17 C6          -5.3010    -1.2080    -0.0090 ca         1 LMC      -0.145000
     18 C5          -5.6190     0.1660     0.0360 ca         1 LMC      -0.075000
     19 C4          -4.5920     1.1300     0.0600 ca         1 LMC      -0.150000
     20 O1           7.6200     0.7590    -0.4910 o          1 LMC      -0.537100
     21 H18          6.7300    -1.0340    -0.1620 h4         1 LMC      -0.022800
     22 H17          5.2200     1.7120    -0.3950 ha         1 LMC       0.192000
     23 H20          3.2450    -1.7890     0.9890 hc         1 LMC       0.047700
     24 H20A         3.8890    -2.1080    -0.6300 hc         1 LMC       0.047700
     25 H15          2.9150     1.7880     0.0560 ha         1 LMC       0.178000
     26 H14          1.4540    -0.8970    -0.0430 ha         1 LMC       0.164000
     27 H13          0.5510     2.0800     0.0750 ha         1 LMC       0.180000
     28 H11          0.0420    -1.7880    -1.4080 hc         1 LMC       0.042367
     29 H11A        -1.5220    -2.5950    -1.3900 hc         1 LMC       0.042367
     30 H11B        -1.3410    -1.0390    -2.2080 hc         1 LMC       0.042367
     31 H10         -1.3140    -1.1860     2.1480 hc         1 LMC       0.042367
     32 H10A        -1.5060    -2.6840     1.2290 hc         1 LMC       0.042367
     33 H10B         0.0590    -1.8790     1.2820 hc         1 LMC       0.042367
     34 H12         -1.5100     3.3060    -0.7770 h1         1 LMC       0.046367
     35 H12A        -3.0390     3.3520     0.1180 h1         1 LMC       0.046367
     36 H12B        -1.5090     3.2490     1.0060 h1         1 LMC       0.046367
     37 H1          -3.7110    -2.6860    -0.0650 ha         1 LMC       0.117000
     38 H6          -6.0980    -1.9480    -0.0280 ha         1 LMC       0.117000
     39 H5          -6.6600     0.4820     0.0520 ha         1 LMC       0.114000
     40 H4          -4.8400     2.1850     0.0950 ha         1 LMC       0.120000
     41 H21          4.9690    -1.8970     0.7580 hc         1 LMC       0.047700
@<TRIPOS>BOND
     1     1     2 1   
     2     1    20 2   
     3     1    21 1   
     4     2     3 2   
     5     2    22 1   
     6     3     4 1   
     7     3     5 1   
     8     4    23 1   
     9     4    24 1   
    10     4    41 1   
    11     5     6 2   
    12     5    25 1   
    13     6     7 1   
    14     6    26 1   
    15     7     8 2   
    16     7    27 1   
    17     8     9 1   
    18     8    14 1   
    19     9    10 1   
    20     9    11 1   
    21     9    12 1   
    22    10    28 1   
    23    10    29 1   
    24    10    30 1   
    25    11    31 1   
    26    11    32 1   
    27    11    33 1   
    28    12    13 ar  
    29    12    16 ar  
    30    13    14 1   
    31    13    19 ar  
    32    14    15 1   
    33    15    34 1   
    34    15    35 1   
    35    15    36 1   
    36    16    17 ar  
    37    16    37 1   
    38    17    18 ar  
    39    17    38 1   
    40    18    19 ar  
    41    18    39 1   
    42    19    40 1   
@<TRIPOS>SUBSTRUCTURE
     1 LMC         1 TEMP              0 ****  ****    0 ROOT
