@<TRIPOS>MOLECULE
LMC
   41    42     1     0     0
SMALL
abcg2


@<TRIPOS>ATOM
      1 C18          6.4980     0.0560    -0.0610 c          1 LMC       0.572100
      2 C17          5.1910     0.6580    -0.0440 ce         1 LMC      -0.349200
      3 C16          4.0000    -0.0090    -0.0250 cf         1 LMC       0.024800
      4 C20          3.8870    -1.5060    -0.0140 c3         1 LMC      -0.072900
      5 C15          2.7880     0.7630    -0.0150 cf         1 LMC      -0.248000
      6 C14          1.5320     0.2450     0.0000 ce         1 LMC      -0.096000
      7 C13          0.3490     1.0360     0.0080 ce         1 LMC      -0.312000
      8 C8          -0.9280     0.5590     0.0160 c2         1 LMC       0.166800
      9 C7          -1.4110    -0.8900     0.0170 c5         1 LMC       0.033500
     10 C11         -0.9800    -1.6370    -1.2520 c3         1 LMC      -0.072100
     11 C10         -0.9710    -1.6320     1.2860 c3         1 LMC      -0.072100
     12 C2          -2.9090    -0.7050     0.0220 ca         1 LMC      -0.145300
     13 C3          -3.2040     0.6540     0.0280 ca         1 LMC       0.298000
     14 N9          -2.0190     1.3780     0.0240 nh         1 LMC      -0.678200
     15 C12         -1.9350     2.8160     0.0240 c3         1 LMC       0.218100
     16 C1          -3.9220    -1.6390     0.0220 ca         1 LMC      -0.055000
     17 C6          -5.2470    -1.1990     0.0290 ca         1 LMC      -0.145000
     18 C5          -5.5290     0.1610     0.0360 ca         1 LMC      -0.075000
     19 C4          -4.5120     1.1130     0.0360 ca         1 LMC      -0.150000
     20 O1           7.5410     0.6940    -0.0860 o          1 LMC      -0.537100
     21 H18          6.5400    -1.0450    -0.0510 h4         1 LMC      -0.022800
     22 H17          5.1710     1.7440    -0.0500 ha         1 LMC       0.192000
     23 H20          3.3420    -1.8400     0.8710 hc         1 LMC       0.047700
     24 H20A         3.3290    -1.8530    -0.8850 hc         1 LMC       0.047700
     25 H15          2.8990     1.8440    -0.0220 ha         1 LMC       0.178000
     26 H14          1.4240    -0.8320     0.0070 ha         1 LMC       0.164000
     27 H13          0.4920     2.1120     0.0070 ha         1 LMC       0.180000
     28 H11          0.1010    -1.7470    -1.3180 hc         1 LMC       0.042367
     29 H11A        -1.4140    -2.6380    -1.2570 hc         1 LMC       0.042367
     30 H11B        -1.3210    -1.1180    -2.1470 hc         1 LMC       0.042367
     31 H10         -1.3060    -1.1090     2.1820 hc         1 LMC       0.042367
     32 H10A        -1.4040    -2.6330     1.2990 hc         1 LMC       0.042367
     33 H10B         0.1110    -1.7400     1.3450 hc         1 LMC       0.042367
     34 H12         -1.4130     3.1740    -0.8650 h1         1 LMC       0.046367
     35 H12A        -2.9310     3.2440     0.0300 h1         1 LMC       0.046367
     36 H12B        -1.4020     3.1740     0.9070 h1         1 LMC       0.046367
     37 H1          -3.7010    -2.7000     0.0170 ha         1 LMC       0.117000
     38 H6          -6.0540    -1.9190     0.0280 ha         1 LMC       0.117000
     39 H5          -6.5590     0.4930     0.0420 ha         1 LMC       0.114000
     40 H4          -4.7530     2.1670     0.0430 ha         1 LMC       0.120000
     41 H21          4.8450    -2.0160    -0.0180 hc         1 LMC       0.047700
@<TRIPOS>BOND
     1     1     2 1   
     2     1    20 2   
     3     1    21 1   
     4     2     3 2   
     5     2    22 1   
     6     3     4 1   
     7     3     5 1   
     8     4    23 1   
     9     4    24 1   
    10     4    41 1   
    11     5     6 2   
    12     5    25 1   
    13     6     7 1   
    14     6    26 1   
    15     7     8 2   
    16     7    27 1   
    17     8     9 1   
    18     8    14 1   
    19     9    10 1   
    20     9    11 1   
    21     9    12 1   
    22    10    28 1   
    23    10    29 1   
    24    10    30 1   
    25    11    31 1   
    26    11    32 1   
    27    11    33 1   
    28    12    13 ar  
    29    12    16 ar  
    30    13    14 1   
    31    13    19 ar  
    32    14    15 1   
    33    15    34 1   
    34    15    35 1   
    35    15    36 1   
    36    16    17 ar  
    37    16    37 1   
    38    17    18 ar  
    39    17    38 1   
    40    18    19 ar  
    41    18    39 1   
    42    19    40 1   
@<TRIPOS>SUBSTRUCTURE
     1 LMC         1 TEMP              0 ****  ****    0 ROOT
