@<TRIPOS>MOLECULE
LMD
   87    88     1     0     0
SMALL
bcc


@<TRIPOS>ATOM
      1 CBK         17.2940    -0.3940     0.5300 c3         1 LMD      -0.088100
      2 CBJ         15.9260    -0.8750     0.9930 c3         1 LMD      -0.075400
      3 CBI         14.7770    -0.1750     0.2780 c3         1 LMD      -0.075400
      4 CBH         13.4040    -0.6520     0.7330 c3         1 LMD      -0.074400
      5 CBG         12.2540     0.0440     0.0160 c3         1 LMD      -0.074400
      6 CBF         10.8820    -0.4370     0.4720 c3         1 LMD      -0.074400
      7 CBE          9.7290     0.2540    -0.2440 c3         1 LMD      -0.073400
      8 CBD          8.3610    -0.2350     0.2150 c3         1 LMD      -0.074400
      9 CBC          7.2010     0.4540    -0.4920 c3         1 LMD      -0.074400
     10 CBB          5.8380    -0.0420    -0.0250 c3         1 LMD      -0.075400
     11 CBA          4.6690     0.6570    -0.7090 c3         1 LMD      -0.073400
     12 CAZ          3.3160     0.1520    -0.2240 c3         1 LMD      -0.074400
     13 CAY          2.1390     0.8910    -0.8480 c3         1 LMD      -0.080400
     14 CAX          0.8200     0.3560    -0.3310 c3         1 LMD       0.141400
     15 OAS         -0.2410     1.1590    -0.8280 os         1 LMD      -0.407600
     16 CAM         -1.4810     0.8760    -0.3030 c6         1 LMD       0.318900
     17 CAN         -2.3590     2.1190    -0.4130 c6         1 LMD       0.089100
     18 OAT         -1.8520     3.1860     0.3470 oh         1 LMD      -0.603800
     19 CAO         -3.7310     1.7740     0.1430 c6         1 LMD       0.127100
     20 OAU         -4.6440     2.8400    -0.0190 oh         1 LMD      -0.613800
     21 OAV         -2.0580    -0.1690    -1.0440 os         1 LMD      -0.416600
     22 CAQ         -3.3010    -0.6060    -0.5360 c6         1 LMD       0.151100
     23 CAR         -3.7650    -1.7640    -1.3940 c3         1 LMD       0.144400
     24 OAW         -2.8650    -2.8340    -1.2320 oh         1 LMD      -0.592800
     25 CAP         -4.3090     0.5500    -0.5570 c6         1 LMD       0.127100
     26 O1          -5.4810     0.1520     0.1190 os         1 LMD      -0.439600
     27 C1          -6.7180     0.4620    -0.4550 c6         1 LMD       0.313900
     28 O5          -7.3070    -0.6590    -1.0360 os         1 LMD      -0.406600
     29 C5          -7.6450    -1.7150    -0.1490 c6         1 LMD       0.144100
     30 C6          -8.2220    -2.8330    -0.9900 c3         1 LMD       0.146400
     31 O6          -7.2300    -3.2880    -1.8790 oh         1 LMD      -0.596800
     32 C4          -8.6280    -1.2150     0.9080 c6         1 LMD       0.124100
     33 O4          -8.8950    -2.2750     1.7920 oh         1 LMD      -0.597800
     34 C3          -8.0180    -0.0200     1.6280 c6         1 LMD       0.103100
     35 O3          -8.9730     0.4490     2.5550 oh         1 LMD      -0.606800
     36 C2          -7.6370     1.0550     0.6180 c6         1 LMD       0.104100
     37 O2          -7.0750     2.1520     1.2900 oh         1 LMD      -0.616800
     38 H1          17.4300    -0.5650    -0.5400 hc         1 LMD       0.031367
     39 H2          17.4160     0.6760     0.7080 hc         1 LMD       0.031367
     40 H3          18.1010    -0.9100     1.0520 hc         1 LMD       0.031367
     41 H4          15.8440    -1.9560     0.8350 hc         1 LMD       0.036700
     42 H5          15.8280    -0.7200     2.0720 hc         1 LMD       0.036700
     43 H6          14.8580     0.9060     0.4350 hc         1 LMD       0.036700
     44 H7          14.8750    -0.3300    -0.8030 hc         1 LMD       0.036700
     45 H8          13.3250    -1.7340     0.5780 hc         1 LMD       0.036700
     46 H9          13.3060    -0.4950     1.8130 hc         1 LMD       0.036700
     47 H10         12.3300     1.1260     0.1720 hc         1 LMD       0.036700
     48 H11         12.3520    -0.1110    -1.0640 hc         1 LMD       0.036700
     49 H12         10.8080    -1.5190     0.3170 hc         1 LMD       0.036700
     50 H13         10.7840    -0.2810     1.5520 hc         1 LMD       0.036700
     51 H14          9.8000     1.3360    -0.0870 hc         1 LMD       0.037700
     52 H15          9.8260     0.0990    -1.3240 hc         1 LMD       0.037700
     53 H16          8.2900    -1.3170     0.0560 hc         1 LMD       0.037200
     54 H17          8.2660    -0.0830     1.2960 hc         1 LMD       0.037200
     55 H18          7.2690     1.5360    -0.3310 hc         1 LMD       0.037700
     56 H19          7.2920     0.3040    -1.5740 hc         1 LMD       0.037700
     57 H20          5.7660    -1.1210    -0.1970 hc         1 LMD       0.037700
     58 H21          5.7550     0.0970     1.0580 hc         1 LMD       0.037700
     59 H22          4.7390     1.7360    -0.5320 hc         1 LMD       0.039700
     60 H23          4.7440     0.5210    -1.7930 hc         1 LMD       0.039700
     61 H24          3.2330    -0.9200    -0.4320 hc         1 LMD       0.039200
     62 H25          3.2660     0.2530     0.8660 hc         1 LMD       0.039200
     63 H26          2.2130     1.9570    -0.6140 hc         1 LMD       0.051700
     64 H27          2.1770     0.8000    -1.9380 hc         1 LMD       0.051700
     65 H28          0.6900    -0.6890    -0.6320 h1         1 LMD       0.035200
     66 H29          0.8150     0.3810     0.7670 h1         1 LMD       0.035200
     67 H30         -1.3990     0.5820     0.7600 h2         1 LMD       0.034700
     68 H31         -2.4530     2.3880    -1.4760 h1         1 LMD       0.068700
     69 H32         -1.0470     3.5040    -0.0740 ho         1 LMD       0.429000
     70 H33         -3.6150     1.5280     1.2100 h1         1 LMD       0.059700
     71 H34         -4.2990     3.6130     0.4430 ho         1 LMD       0.435000
     72 H35         -3.1860    -0.9490     0.5060 h1         1 LMD       0.061700
     73 H36         -4.7810    -2.0440    -1.0990 h1         1 LMD       0.044200
     74 H37         -3.8160    -1.4270    -2.4390 h1         1 LMD       0.044200
     75 H38         -3.1870    -3.5740    -1.7540 ho         1 LMD       0.409000
     76 H39         -4.5290     0.8060    -1.6040 h1         1 LMD       0.067700
     77 H40         -6.5930     1.1800    -1.2740 h2         1 LMD       0.084700
     78 H41         -6.7460    -2.0880     0.3630 h1         1 LMD       0.071700
     79 H42         -8.5630    -3.6300    -0.3220 h1         1 LMD       0.037200
     80 H43         -9.1080    -2.4580    -1.5230 h1         1 LMD       0.037200
     81 H44         -7.5830    -4.0460    -2.3530 ho         1 LMD       0.405000
     82 H45         -9.5480    -0.8820     0.4000 h1         1 LMD       0.051700
     83 H46         -9.4460    -1.9350     2.5050 ho         1 LMD       0.427000
     84 H47         -7.1090    -0.3570     2.1480 h1         1 LMD       0.060700
     85 H48         -8.5360     1.0510     3.1640 ho         1 LMD       0.426000
     86 H49         -8.5530     1.3680     0.0930 h1         1 LMD       0.065700
     87 H50         -6.2680     2.4490     0.8380 ho         1 LMD       0.440000
@<TRIPOS>BOND
     1     1     2 1   
     2     1    38 1   
     3     1    39 1   
     4     1    40 1   
     5     2     3 1   
     6     2    41 1   
     7     2    42 1   
     8     3     4 1   
     9     3    43 1   
    10     3    44 1   
    11     4     5 1   
    12     4    45 1   
    13     4    46 1   
    14     5     6 1   
    15     5    47 1   
    16     5    48 1   
    17     6     7 1   
    18     6    49 1   
    19     6    50 1   
    20     7     8 1   
    21     7    51 1   
    22     7    52 1   
    23     8     9 1   
    24     8    53 1   
    25     8    54 1   
    26     9    10 1   
    27     9    55 1   
    28     9    56 1   
    29    10    11 1   
    30    10    57 1   
    31    10    58 1   
    32    11    12 1   
    33    11    59 1   
    34    11    60 1   
    35    12    13 1   
    36    12    61 1   
    37    12    62 1   
    38    13    14 1   
    39    13    63 1   
    40    13    64 1   
    41    14    15 1   
    42    14    65 1   
    43    14    66 1   
    44    15    16 1   
    45    16    17 1   
    46    16    21 1   
    47    16    67 1   
    48    17    18 1   
    49    17    19 1   
    50    17    68 1   
    51    18    69 1   
    52    19    20 1   
    53    19    25 1   
    54    19    70 1   
    55    20    71 1   
    56    21    22 1   
    57    22    23 1   
    58    22    25 1   
    59    22    72 1   
    60    23    24 1   
    61    23    73 1   
    62    23    74 1   
    63    24    75 1   
    64    25    26 1   
    65    25    76 1   
    66    26    27 1   
    67    27    28 1   
    68    27    36 1   
    69    27    77 1   
    70    28    29 1   
    71    29    30 1   
    72    29    32 1   
    73    29    78 1   
    74    30    31 1   
    75    30    79 1   
    76    30    80 1   
    77    31    81 1   
    78    32    33 1   
    79    32    34 1   
    80    32    82 1   
    81    33    83 1   
    82    34    35 1   
    83    34    36 1   
    84    34    84 1   
    85    35    85 1   
    86    36    37 1   
    87    36    86 1   
    88    37    87 1   
@<TRIPOS>SUBSTRUCTURE
     1 LMD         1 TEMP              0 ****  ****    0 ROOT
