@<TRIPOS>MOLECULE
LMD
   87    88     1     0     0
SMALL
No Charge or Current Charge


@<TRIPOS>ATOM
      1 CBK         17.5460    -0.4890    -0.2190 c3         1 LMD      -0.088100
      2 CBJ         16.2010    -1.0400     0.2920 c3         1 LMD      -0.075400
      3 CBI         14.9870    -0.2190    -0.1950 c3         1 LMD      -0.075400
      4 CBH         13.6380    -0.7720     0.3170 c3         1 LMD      -0.074400
      5 CBG         12.4240     0.0490    -0.1700 c3         1 LMD      -0.074400
      6 CBF         11.0760    -0.5040     0.3410 c3         1 LMD      -0.074400
      7 CBE          9.8620     0.3170    -0.1450 c3         1 LMD      -0.073400
      8 CBD          8.5140    -0.2360     0.3660 c3         1 LMD      -0.074400
      9 CBC          7.3000     0.5850    -0.1210 c3         1 LMD      -0.074400
     10 CBB          5.9520     0.0320     0.3910 c3         1 LMD      -0.075400
     11 CBA          4.7380     0.8530    -0.0960 c3         1 LMD      -0.073400
     12 CAZ          3.3900     0.2990     0.4150 c3         1 LMD      -0.074400
     13 CAY          2.1750     1.1200    -0.0710 c3         1 LMD      -0.080400
     14 CAX          0.8320     0.5650     0.4400 c3         1 LMD       0.164600
     15 OAS         -0.2110     1.4080    -0.0750 os         1 LMD      -0.454000
     16 CAM         -1.5500     1.0680     0.3180 c6         1 LMD       0.365300
     17 CAN         -2.5530     2.1460    -0.2080 c6         1 LMD       0.112300
     18 OAT         -2.2460     3.4810     0.2630 oh         1 LMD      -0.726000
     19 CAO         -3.9840     1.7360     0.2270 c6         1 LMD       0.150300
     20 OAU         -4.9180     2.7480    -0.1970 oh         1 LMD      -0.736000
     21 OAV         -1.9010    -0.2150    -0.2370 os         1 LMD      -0.463000
     22 CAQ         -3.2190    -0.6880     0.1610 c6         1 LMD       0.174300
     23 CAR         -3.4320    -2.1250    -0.4210 c3         1 LMD       0.167600
     24 OAW         -2.4100    -3.0630    -0.0180 oh         1 LMD      -0.715000
     25 CAP         -4.3130     0.3100    -0.3270 c6         1 LMD       0.150300
     26 O1          -5.6340    -0.1360     0.0680 os         1 LMD      -0.486000
     27 C1          -6.7270     0.3370    -0.7500 c6         1 LMD       0.360300
     28 O5          -7.2870    -0.7830    -1.4650 os         1 LMD      -0.453000
     29 C5          -7.9160    -1.7910    -0.6250 c6         1 LMD       0.167300
     30 C6          -8.4040    -2.9620    -1.5420 c3         1 LMD       0.169600
     31 O6          -7.3520    -3.5380    -2.3460 oh         1 LMD      -0.719000
     32 C4          -9.0820    -1.1510     0.1930 c6         1 LMD       0.147300
     33 O4          -9.7190    -2.0960     1.0730 oh         1 LMD      -0.720000
     34 C3          -8.5290     0.0410     1.0270 c6         1 LMD       0.126300
     35 O3          -9.5850     0.6800     1.7680 oh         1 LMD      -0.669000
     36 C2          -7.8230     1.0700     0.1000 c6         1 LMD       0.127300
     37 O2          -7.2900     2.1640     0.8890 oh         1 LMD      -0.739000
     38 H1          17.5770    -0.4950    -1.3150 hc         1 LMD       0.031367
     39 H2          17.7000     0.5400     0.1280 hc         1 LMD       0.031367
     40 H3          18.3760    -1.1030     0.1520 hc         1 LMD       0.031367
     41 H4          16.0930    -2.0810    -0.0410 hc         1 LMD       0.036700
     42 H5          16.2140    -1.0550     1.3890 hc         1 LMD       0.036700
     43 H6          15.0990     0.8210     0.1380 hc         1 LMD       0.036700
     44 H7          14.9780    -0.2050    -1.2920 hc         1 LMD       0.036700
     45 H8          13.5260    -1.8120    -0.0160 hc         1 LMD       0.036700
     46 H9          13.6480    -0.7860     1.4140 hc         1 LMD       0.036700
     47 H10         12.5370     1.0890     0.1630 hc         1 LMD       0.036700
     48 H11         12.4150     0.0630    -1.2670 hc         1 LMD       0.036700
     49 H12         10.9640    -1.5440     0.0090 hc         1 LMD       0.036700
     50 H13         11.0850    -0.5180     1.4380 hc         1 LMD       0.036700
     51 H14          9.9740     1.3570     0.1870 hc         1 LMD       0.037700
     52 H15          9.8530     0.3310    -1.2420 hc         1 LMD       0.037700
     53 H16          8.4020    -1.2760     0.0330 hc         1 LMD       0.037200
     54 H17          8.5230    -0.2500     1.4630 hc         1 LMD       0.037200
     55 H18          7.4120     1.6250     0.2120 hc         1 LMD       0.037700
     56 H19          7.2910     0.5990    -1.2180 hc         1 LMD       0.037700
     57 H20          5.8400    -1.0080     0.0580 hc         1 LMD       0.037700
     58 H21          5.9610     0.0180     1.4880 hc         1 LMD       0.037700
     59 H22          4.8500     1.8930     0.2370 hc         1 LMD       0.039700
     60 H23          4.7290     0.8670    -1.1930 hc         1 LMD       0.039700
     61 H24          3.2780    -0.7400     0.0830 hc         1 LMD       0.039200
     62 H25          3.3990     0.2850     1.5130 hc         1 LMD       0.039200
     63 H26          2.2830     2.1590     0.2630 hc         1 LMD       0.051700
     64 H27          2.1620     1.1320    -1.1680 hc         1 LMD       0.051700
     65 H28          0.7080    -0.4690     0.0930 h1         1 LMD       0.035200
     66 H29          0.8260     0.5680     1.5380 h1         1 LMD       0.035200
     67 H30         -1.6030     1.0220     1.4160 h2         1 LMD       0.034700
     68 H31         -2.5080     2.1240    -1.3080 h1         1 LMD       0.068700
     69 H32         -1.2710     3.5970     0.1440 ho         1 LMD       0.528000
     70 H33         -3.9940     1.6750     1.3260 h1         1 LMD       0.059700
     71 H34         -4.3710     3.5770    -0.1980 ho         1 LMD       0.534000
     72 H35         -3.2550    -0.7560     1.2580 h1         1 LMD       0.061700
     73 H36         -4.4180    -2.4830    -0.0960 h1         1 LMD       0.044200
     74 H37         -3.4610    -2.0460    -1.5170 h1         1 LMD       0.044200
     75 H38         -2.5950    -3.9100    -0.4870 ho         1 LMD       0.508000
     76 H39         -4.2660     0.3340    -1.4270 h1         1 LMD       0.067700
     77 H40         -6.3480     1.0580    -1.4920 h2         1 LMD       0.084700
     78 H41         -7.1670    -2.1980     0.0690 h1         1 LMD       0.071700
     79 H42         -8.8500    -3.7360    -0.9030 h1         1 LMD       0.037200
     80 H43         -9.2040    -2.5760    -2.1890 h1         1 LMD       0.037200
     81 H44         -7.7740    -4.2100    -2.9320 ho         1 LMD       0.504000
     82 H45         -9.8220    -0.7570    -0.5210 h1         1 LMD       0.051700
     83 H46        -10.1770    -1.5360     1.7470 ho         1 LMD       0.526000
     84 H47         -7.7750    -0.3530     1.7260 h1         1 LMD       0.060700
     85 H48         -9.2270     1.5730     1.9850 ho         1 LMD       0.465000
     86 H49         -8.5690     1.4610    -0.6090 h1         1 LMD       0.065700
     87 H50         -6.3880     2.3760     0.5000 ho         1 LMD       0.539000
@<TRIPOS>BOND
     1     1     2 1   
     2     1    38 1   
     3     1    39 1   
     4     1    40 1   
     5     2     3 1   
     6     2    41 1   
     7     2    42 1   
     8     3     4 1   
     9     3    43 1   
    10     3    44 1   
    11     4     5 1   
    12     4    45 1   
    13     4    46 1   
    14     5     6 1   
    15     5    47 1   
    16     5    48 1   
    17     6     7 1   
    18     6    49 1   
    19     6    50 1   
    20     7     8 1   
    21     7    51 1   
    22     7    52 1   
    23     8     9 1   
    24     8    53 1   
    25     8    54 1   
    26     9    10 1   
    27     9    55 1   
    28     9    56 1   
    29    10    11 1   
    30    10    57 1   
    31    10    58 1   
    32    11    12 1   
    33    11    59 1   
    34    11    60 1   
    35    12    13 1   
    36    12    61 1   
    37    12    62 1   
    38    13    14 1   
    39    13    63 1   
    40    13    64 1   
    41    14    15 1   
    42    14    65 1   
    43    14    66 1   
    44    15    16 1   
    45    16    17 1   
    46    16    21 1   
    47    16    67 1   
    48    17    18 1   
    49    17    19 1   
    50    17    68 1   
    51    18    69 1   
    52    19    20 1   
    53    19    25 1   
    54    19    70 1   
    55    20    71 1   
    56    21    22 1   
    57    22    23 1   
    58    22    25 1   
    59    22    72 1   
    60    23    24 1   
    61    23    73 1   
    62    23    74 1   
    63    24    75 1   
    64    25    26 1   
    65    25    76 1   
    66    26    27 1   
    67    27    28 1   
    68    27    36 1   
    69    27    77 1   
    70    28    29 1   
    71    29    30 1   
    72    29    32 1   
    73    29    78 1   
    74    30    31 1   
    75    30    79 1   
    76    30    80 1   
    77    31    81 1   
    78    32    33 1   
    79    32    34 1   
    80    32    82 1   
    81    33    83 1   
    82    34    35 1   
    83    34    36 1   
    84    34    84 1   
    85    35    85 1   
    86    36    37 1   
    87    36    86 1   
    88    37    87 1   
@<TRIPOS>SUBSTRUCTURE
     1 LMD         1 TEMP              0 ****  ****    0 ROOT
