@<TRIPOS>MOLECULE
LME
   20    19     1     0     0
SMALL
bcc


@<TRIPOS>ATOM
      1 N           -7.5520   -17.2390    -4.8310 n8         1 LME      -0.865800
      2 CA          -7.5870   -17.9070    -3.5360 c3         1 LME       0.023500
      3 CB          -7.2510   -19.4050    -3.6780 c3         1 LME      -0.016700
      4 C1          -5.8280   -19.6230    -4.1880 c3         1 LME      -0.072100
      5 CG          -8.2510   -20.1410    -4.5710 c3         1 LME      -0.184400
      6 CD          -9.7030   -20.1030    -4.0600 c          1 LME       0.928600
      7 OE1         -9.8870   -20.4620    -2.8760 o          1 LME      -0.867800
      8 OE2        -10.5840   -19.7340    -4.8640 o          1 LME      -0.867800
      9 C           -6.6870   -17.2670    -2.4460 c          1 LME       0.897600
     10 O           -6.8710   -17.6690    -1.2770 o          1 LME      -0.866800
     11 H2          -8.0470   -16.3590    -4.7540 hn         1 LME       0.303800
     12 H           -6.5930   -16.9650    -5.0100 hn         1 LME       0.303800
     13 HA          -8.6170   -17.8480    -3.1670 h1         1 LME       0.069700
     14 HB          -7.3230   -19.8370    -2.6780 hc         1 LME       0.068700
     15 H11         -5.5970   -20.6880    -4.2460 hc         1 LME       0.002700
     16 H12         -5.6930   -19.2120    -5.1920 hc         1 LME       0.002700
     17 H13         -5.0790   -19.1640    -3.5410 hc         1 LME       0.002700
     18 HG2         -8.1960   -19.7430    -5.5870 hc         1 LME       0.002200
     19 HG3         -7.9410   -21.1920    -4.6310 hc         1 LME       0.002200
     20 OXT         -5.8470   -16.4200    -2.8160 o          1 LME      -0.866800
@<TRIPOS>BOND
     1     1     2 1   
     2     1    11 1   
     3     1    12 1   
     4     2     3 1   
     5     2     9 1   
     6     2    13 1   
     7     3     4 1   
     8     3     5 1   
     9     3    14 1   
    10     4    15 1   
    11     4    16 1   
    12     4    17 1   
    13     5     6 1   
    14     5    18 1   
    15     5    19 1   
    16     6     7 1   
    17     6     8 1   
    18     9    10 1   
    19     9    20 1   
@<TRIPOS>SUBSTRUCTURE
     1 LME         1 TEMP              0 ****  ****    0 ROOT
