@<TRIPOS>MOLECULE
LME
   20    19     1     0     0
SMALL
No Charge or Current Charge


@<TRIPOS>ATOM
      1 N           -7.4720   -17.1390    -4.9410 n8         1 LME      -0.865800
      2 CA          -7.5850   -17.8570    -3.6090 c3         1 LME       0.023500
      3 CB          -7.2630   -19.3840    -3.7480 c3         1 LME      -0.016700
      4 C1          -5.8110   -19.6450    -4.2300 c3         1 LME      -0.072100
      5 CG          -8.2950   -20.1840    -4.6070 c3         1 LME      -0.184400
      6 CD          -9.6800   -20.2450    -3.9230 c          1 LME       0.928600
      7 OE1         -9.8760   -21.1140    -3.0820 o          1 LME      -0.867800
      8 OE2        -10.5340   -19.4210    -4.2260 o          1 LME      -0.867800
      9 C           -6.7970   -17.2240    -2.3780 c          1 LME       0.897600
     10 O           -7.2540   -17.3770    -1.2500 o          1 LME      -0.866800
     11 H2          -7.7150   -16.1520    -4.8070 hn         1 LME       0.303800
     12 H           -6.4840   -17.1180    -5.2100 hn         1 LME       0.303800
     13 HA          -8.6380   -17.7760    -3.3110 h1         1 LME       0.069700
     14 HB          -7.3210   -19.8060    -2.7350 hc         1 LME       0.068700
     15 H11         -5.5800   -20.7170    -4.1990 hc         1 LME       0.002700
     16 H12         -5.6660   -19.2990    -5.2610 hc         1 LME       0.002700
     17 H13         -5.0850   -19.1330    -3.5890 hc         1 LME       0.002700
     18 HG2         -8.3590   -19.6910    -5.5840 hc         1 LME       0.002200
     19 HG3         -7.8850   -21.2010    -4.6680 hc         1 LME       0.002200
     20 OXT         -5.8330   -16.4940    -2.5910 o          1 LME      -0.866800
@<TRIPOS>BOND
     1     1     2 1   
     2     1    11 1   
     3     1    12 1   
     4     2     3 1   
     5     2     9 1   
     6     2    13 1   
     7     3     4 1   
     8     3     5 1   
     9     3    14 1   
    10     4    15 1   
    11     4    16 1   
    12     4    17 1   
    13     5     6 1   
    14     5    18 1   
    15     5    19 1   
    16     6     7 1   
    17     6     8 1   
    18     9    10 1   
    19     9    20 1   
@<TRIPOS>SUBSTRUCTURE
     1 LME         1 TEMP              0 ****  ****    0 ROOT
