@<TRIPOS>MOLECULE
LMG
  141   141     1     0     0
SMALL
No Charge or Current Charge


@<TRIPOS>ATOM
      1 C1          97.5050   102.3530    56.9430 c6         1 LMG       0.410300
      2 O1          97.1940   102.7510    58.2890 os         1 LMG      -0.429000
      3 C2          96.2120   102.2850    56.0600 c6         1 LMG       0.154300
      4 O2          95.2300   101.3350    56.5480 oh         1 LMG      -0.712000
      5 C3          96.6080   101.9300    54.5930 c6         1 LMG       0.135300
      6 O3          95.4490   101.9540    53.7420 oh         1 LMG      -0.645000
      7 C4          97.6780   102.9260    54.0510 c6         1 LMG       0.121300
      8 O4          97.0680   104.2260    53.8730 oh         1 LMG      -0.693000
      9 C5          98.8850   102.9560    55.0540 c6         1 LMG       0.152300
     10 C6         100.0080   103.9670    54.6610 c3         1 LMG       0.158600
     11 O6          98.4310   103.3080    56.3830 os         1 LMG      -0.484000
     12 C7          98.2830   102.7080    59.2310 c3         1 LMG       0.167600
     13 C8          97.7450   103.1120    60.6230 c3         1 LMG       0.172300
     14 C9          96.6800   102.1220    61.1760 c3         1 LMG       0.143600
     15 O7          98.8780   103.1730    61.5240 os         1 LMG      -0.455100
     16 C10         98.7390   103.8110    62.7290 c          1 LMG       0.599100
     17 O9          97.7320   104.4030    63.0910 o          1 LMG      -0.478000
     18 C11        100.0240   103.7440    63.5540 c3         1 LMG      -0.135400
     19 C12         99.9610   102.6090    64.6020 c3         1 LMG      -0.072400
     20 C13        101.2480   102.5090    65.4500 c3         1 LMG      -0.075400
     21 C14        101.1630   101.4210    66.5390 c3         1 LMG      -0.076400
     22 C15        102.4260   101.3440    67.4240 c3         1 LMG      -0.074400
     23 C16        102.2930   100.2890    68.5410 c3         1 LMG      -0.079400
     24 C17        103.5000   100.2440    69.5050 c3         1 LMG      -0.071400
     25 C18        103.4180    99.1170    70.5630 c3         1 LMG      -0.072400
     26 C19        102.1800    99.1930    71.4890 c3         1 LMG      -0.078400
     27 C20        102.1760    98.1060    72.5840 c3         1 LMG      -0.075400
     28 C21        100.8880    98.1240    73.4340 c3         1 LMG      -0.078400
     29 C22        100.8720    97.0400    74.5370 c3         1 LMG      -0.072400
     30 C23         99.5740    97.0150    75.3760 c3         1 LMG      -0.075400
     31 C24         98.3440    96.4400    74.6290 c3         1 LMG      -0.074400
     32 C25         97.0050    96.5560    75.3980 c3         1 LMG      -0.075400
     33 C26         96.9800    95.8390    76.7680 c3         1 LMG      -0.076400
     34 C27         95.6040    95.9130    77.4570 c3         1 LMG      -0.090100
     35 O8          97.2610   100.8030    61.2820 os         1 LMG      -0.450100
     36 C28         96.4350    99.7590    61.6040 c          1 LMG       0.595100
     37 O10         95.2190    99.8510    61.6970 o          1 LMG      -0.485000
     38 C29         97.1780    98.4210    61.5580 c3         1 LMG      -0.136400
     39 C30         97.0540    97.6130    62.8720 c3         1 LMG      -0.067400
     40 C31         97.7020    98.2820    64.1070 c3         1 LMG      -0.076400
     41 C32         97.5400    97.4190    65.3800 c3         1 LMG      -0.072400
     42 C33         98.2440    97.9690    66.6420 c3         1 LMG      -0.072400
     43 C34         97.7010    99.3260    67.1450 c3         1 LMG      -0.076400
     44 C35         98.2590    99.7050    68.5340 c3         1 LMG      -0.079400
     45 C36         97.8270   101.1130    69.0050 c3         1 LMG      -0.072400
     46 C37         98.4450   101.5490    70.3560 c3         1 LMG      -0.075400
     47 C38         97.9080   100.7790    71.5850 c3         1 LMG      -0.075400
     48 C39         98.5320   101.2610    72.9130 c3         1 LMG      -0.076400
     49 C40         97.8900   100.6110    74.1590 c3         1 LMG      -0.077400
     50 C41         98.5770   101.0260    75.4780 c3         1 LMG      -0.075400
     51 C42         97.8420   100.5050    76.7370 c3         1 LMG      -0.074400
     52 C43         98.5540   100.8240    78.0730 c3         1 LMG      -0.073400
     53 C44         99.8760   100.0500    78.2890 c3         1 LMG      -0.077400
     54 C45        100.5170   100.3260    79.6620 c3         1 LMG      -0.089100
     55 HC1         97.9760   101.3580    56.9650 h2         1 LMG       0.028700
     56 HC2         95.7780   103.2970    56.0580 h1         1 LMG       0.088700
     57 HO2         94.6450   101.1530    55.7730 ho         1 LMG       0.522000
     58 HC3         97.0470   100.9210    54.5900 h1         1 LMG       0.036700
     59 HO3         95.4200   102.8770    53.3980 ho         1 LMG       0.448000
     60 HC4         98.0410   102.5470    53.0840 h1         1 LMG       0.050700
     61 HO4         97.7330   104.7930    53.4180 ho         1 LMG       0.506000
     62 HC5         99.3410   101.9550    55.0960 h1         1 LMG       0.046700
     63 HO5        101.2920   104.3520    53.2150 ho         1 LMG       0.514000
     64 HC61        99.6060   104.9870    54.7360 h1         1 LMG       0.040700
     65 HC62       100.8120   103.8810    55.4050 h1         1 LMG       0.040700
     66 HC71        98.7170   101.7000    59.2790 h1         1 LMG       0.048200
     67 HC72        99.0760   103.4080    58.9370 h1         1 LMG       0.048200
     68 HC8         97.2850   104.1040    60.5220 h1         1 LMG       0.085700
     69 HC91        96.3100   102.4650    62.1500 h1         1 LMG       0.073200
     70 HC92        95.8260   102.1130    60.4850 h1         1 LMG       0.073200
     71 H111       100.8680   103.5320    62.8870 hc         1 LMG       0.072200
     72 H112       100.1700   104.7000    64.0680 hc         1 LMG       0.072200
     73 H121        99.1030   102.7790    65.2650 hc         1 LMG       0.052700
     74 H122        99.7860   101.6520    64.0920 hc         1 LMG       0.052700
     75 H131       102.1010   102.2990    64.7930 hc         1 LMG       0.039200
     76 H132       101.4400   103.4780    65.9270 hc         1 LMG       0.039200
     77 H141       100.2950   101.6280    67.1760 hc         1 LMG       0.040200
     78 H142       100.9880   100.4450    66.0670 hc         1 LMG       0.040200
     79 H151       103.2970   101.1080    66.8000 hc         1 LMG       0.036700
     80 H152       102.6080   102.3260    67.8770 hc         1 LMG       0.036700
     81 H161       101.3930   100.5180    69.1180 hc         1 LMG       0.040200
     82 H162       102.1480    99.2990    68.0900 hc         1 LMG       0.040200
     83 H171       104.4190   100.1080    68.9210 hc         1 LMG       0.037200
     84 H172       103.5910   101.2110    70.0150 hc         1 LMG       0.037200
     85 H181       103.4250    98.1460    70.0520 hc         1 LMG       0.037200
     86 H182       104.3260    99.1530    71.1780 hc         1 LMG       0.037200
     87 H191       102.1380   100.1830    71.9610 hc         1 LMG       0.039200
     88 H192       101.2680    99.0840    70.8910 hc         1 LMG       0.039200
     89 H201       102.2800    97.1200    72.1140 hc         1 LMG       0.035700
     90 H202       103.0460    98.2450    73.2370 hc         1 LMG       0.035700
     91 H211       100.7820    99.1090    73.9030 hc         1 LMG       0.039200
     92 H212       100.0270    97.9920    72.7690 hc         1 LMG       0.039200
     93 H221       101.0310    96.0520    74.0870 hc         1 LMG       0.036700
     94 H222       101.7190    97.2170    75.2110 hc         1 LMG       0.036700
     95 H231        99.7610    96.4100    76.2710 hc         1 LMG       0.039200
     96 H232        99.3560    98.0300    75.7250 hc         1 LMG       0.039200
     97 H241        98.2210    96.9550    73.6700 hc         1 LMG       0.037700
     98 H242        98.5310    95.3850    74.3920 hc         1 LMG       0.037700
     99 H251        96.7600    97.6150    75.5370 hc         1 LMG       0.037200
    100 H252        96.2110    96.1380    74.7670 hc         1 LMG       0.037200
    101 H261        97.2580    94.7870    76.6350 hc         1 LMG       0.037200
    102 H262        97.7250    96.2890    77.4350 hc         1 LMG       0.037200
    103 H271        95.6320    95.3960    78.4240 hc         1 LMG       0.031033
    104 H272        95.3140    96.9560    77.6330 hc         1 LMG       0.031033
    105 H273        94.8330    95.4380    76.8370 hc         1 LMG       0.031033
    106 H291        96.7430    97.8240    60.7490 hc         1 LMG       0.070200
    107 H292        98.2390    98.5920    61.3380 hc         1 LMG       0.070200
    108 H301        95.9920    97.4260    63.0770 hc         1 LMG       0.051200
    109 H302        97.5170    96.6300    62.7190 hc         1 LMG       0.051200
    110 H311        98.7690    98.4500    63.9120 hc         1 LMG       0.040700
    111 H312        97.2440    99.2660    64.2700 hc         1 LMG       0.040700
    112 H321        96.4720    97.2900    65.5960 hc         1 LMG       0.039200
    113 H322        97.9390    96.4170    65.1790 hc         1 LMG       0.039200
    114 H331        98.1330    97.2260    67.4420 hc         1 LMG       0.036200
    115 H332        99.3200    98.0590    66.4480 hc         1 LMG       0.036200
    116 H341        97.9620   100.1100    66.4240 hc         1 LMG       0.039700
    117 H342        96.6060    99.2860    67.1990 hc         1 LMG       0.039700
    118 H351        97.9280    98.9560    69.2630 hc         1 LMG       0.037200
    119 H352        99.3520    99.6530    68.5020 hc         1 LMG       0.037200
    120 H361        98.1180   101.8440    68.2420 hc         1 LMG       0.038200
    121 H362        96.7330   101.1550    69.0750 hc         1 LMG       0.038200
    122 H371        99.5360   101.4460    70.3080 hc         1 LMG       0.037700
    123 H372        98.2400   102.6170    70.4970 hc         1 LMG       0.037700
    124 H381        96.8190   100.8990    71.6330 hc         1 LMG       0.038200
    125 H382        98.1090    99.7070    71.4710 hc         1 LMG       0.038200
    126 H391        99.6080   101.0470    72.9010 hc         1 LMG       0.036700
    127 H392        98.4260   102.3500    72.9880 hc         1 LMG       0.036700
    128 H401        96.8290   100.8890    74.1990 hc         1 LMG       0.038700
    129 H402        97.9310    99.5190    74.0610 hc         1 LMG       0.038700
    130 H411        99.6080   100.6540    75.4650 hc         1 LMG       0.037200
    131 H412        98.6340   102.1200    75.5300 hc         1 LMG       0.037200
    132 H421        96.8390   100.9480    76.7630 hc         1 LMG       0.037700
    133 H422        97.6990    99.4220    76.6630 hc         1 LMG       0.037700
    134 H431        98.7450   101.9020    78.1340 hc         1 LMG       0.037200
    135 H432        97.8680   100.5800    78.8940 hc         1 LMG       0.037200
    136 H441        99.6870    98.9730    78.1950 hc         1 LMG       0.037200
    137 H442       100.5980   100.3170    77.5080 hc         1 LMG       0.037200
    138 H451       101.4490    99.7590    79.7700 hc         1 LMG       0.030700
    139 H452       100.7490   101.3920    79.7740 hc         1 LMG       0.030700
    140 H453        99.8400   100.0310    80.4730 hc         1 LMG       0.030700
    141 O5         100.5320   103.7340    53.3400 oh         1 LMG      -0.732000
@<TRIPOS>BOND
     1     1     2 1   
     2     1     3 1   
     3     1    11 1   
     4     1    55 1   
     5     2    12 1   
     6     3     4 1   
     7     3     5 1   
     8     3    56 1   
     9     4    57 1   
    10     5     6 1   
    11     5     7 1   
    12     5    58 1   
    13     6    59 1   
    14     7     8 1   
    15     7     9 1   
    16     7    60 1   
    17     8    61 1   
    18     9    10 1   
    19     9    11 1   
    20     9    62 1   
    21    10    64 1   
    22    10    65 1   
    23    10   141 1   
    24    12    13 1   
    25    12    66 1   
    26    12    67 1   
    27    13    14 1   
    28    13    15 1   
    29    13    68 1   
    30    14    35 1   
    31    14    69 1   
    32    14    70 1   
    33    15    16 1   
    34    16    17 2   
    35    16    18 1   
    36    18    19 1   
    37    18    71 1   
    38    18    72 1   
    39    19    20 1   
    40    19    73 1   
    41    19    74 1   
    42    20    21 1   
    43    20    75 1   
    44    20    76 1   
    45    21    22 1   
    46    21    77 1   
    47    21    78 1   
    48    22    23 1   
    49    22    79 1   
    50    22    80 1   
    51    23    24 1   
    52    23    81 1   
    53    23    82 1   
    54    24    25 1   
    55    24    83 1   
    56    24    84 1   
    57    25    26 1   
    58    25    85 1   
    59    25    86 1   
    60    26    27 1   
    61    26    87 1   
    62    26    88 1   
    63    27    28 1   
    64    27    89 1   
    65    27    90 1   
    66    28    29 1   
    67    28    91 1   
    68    28    92 1   
    69    29    30 1   
    70    29    93 1   
    71    29    94 1   
    72    30    31 1   
    73    30    95 1   
    74    30    96 1   
    75    31    32 1   
    76    31    97 1   
    77    31    98 1   
    78    32    33 1   
    79    32    99 1   
    80    32   100 1   
    81    33    34 1   
    82    33   101 1   
    83    33   102 1   
    84    34   103 1   
    85    34   104 1   
    86    34   105 1   
    87    35    36 1   
    88    36    37 2   
    89    36    38 1   
    90    38    39 1   
    91    38   106 1   
    92    38   107 1   
    93    39    40 1   
    94    39   108 1   
    95    39   109 1   
    96    40    41 1   
    97    40   110 1   
    98    40   111 1   
    99    41    42 1   
   100    41   112 1   
   101    41   113 1   
   102    42    43 1   
   103    42   114 1   
   104    42   115 1   
   105    43    44 1   
   106    43   116 1   
   107    43   117 1   
   108    44    45 1   
   109    44   118 1   
   110    44   119 1   
   111    45    46 1   
   112    45   120 1   
   113    45   121 1   
   114    46    47 1   
   115    46   122 1   
   116    46   123 1   
   117    47    48 1   
   118    47   124 1   
   119    47   125 1   
   120    48    49 1   
   121    48   126 1   
   122    48   127 1   
   123    49    50 1   
   124    49   128 1   
   125    49   129 1   
   126    50    51 1   
   127    50   130 1   
   128    50   131 1   
   129    51    52 1   
   130    51   132 1   
   131    51   133 1   
   132    52    53 1   
   133    52   134 1   
   134    52   135 1   
   135    53    54 1   
   136    53   136 1   
   137    53   137 1   
   138    54   138 1   
   139    54   139 1   
   140    54   140 1   
   141    63   141 1   
@<TRIPOS>SUBSTRUCTURE
     1 LMG         1 TEMP              0 ****  ****    0 ROOT
