@<TRIPOS>MOLECULE
LMG
  141   141     1     0     0
SMALL
abcg2


@<TRIPOS>ATOM
      1 C1          98.2540   101.9440    57.2360 c6         1 LMG       0.410300
      2 O1          97.6700   102.7110    58.2190 os         1 LMG      -0.429000
      3 C2          97.1670   101.4580    56.2840 c6         1 LMG       0.154300
      4 O2          96.3150   100.6110    57.0110 oh         1 LMG      -0.712000
      5 C3          97.8350   100.7270    55.1240 c6         1 LMG       0.135300
      6 O3          96.8190   100.3080    54.2470 oh         1 LMG      -0.645000
      7 C4          98.8910   101.6010    54.4480 c6         1 LMG       0.121300
      8 O4          98.2500   102.6810    53.8160 oh         1 LMG      -0.693000
      9 C5          99.8760   102.0600    55.5260 c6         1 LMG       0.152300
     10 C6         100.9390   103.0230    55.0240 c3         1 LMG       0.158600
     11 O6          99.1870   102.7400    56.5560 os         1 LMG      -0.484000
     12 C7          98.4910   103.0020    59.3270 c3         1 LMG       0.167600
     13 C8          97.5870   103.5300    60.4330 c3         1 LMG       0.172300
     14 C9          96.4970   102.5740    60.8710 c3         1 LMG       0.143600
     15 O7          98.4720   103.8050    61.5190 os         1 LMG      -0.455100
     16 C10         98.1510   104.7400    62.4180 c          1 LMG       0.599100
     17 O9          97.1590   105.4180    62.3460 o          1 LMG      -0.478000
     18 C11         99.1760   104.7900    63.5140 c3         1 LMG      -0.135400
     19 C12         99.1310   103.5360    64.3940 c3         1 LMG      -0.072400
     20 C13        100.2570   103.5160    65.4180 c3         1 LMG      -0.075400
     21 C14        100.2040   102.2860    66.3160 c3         1 LMG      -0.076400
     22 C15        101.4270   102.1390    67.2110 c3         1 LMG      -0.074400
     23 C16        101.3590   100.9050    68.1000 c3         1 LMG      -0.079400
     24 C17        102.6090   100.6960    68.9450 c3         1 LMG      -0.071400
     25 C18        102.6020    99.4040    69.7570 c3         1 LMG      -0.072400
     26 C19        101.5410    99.3540    70.8490 c3         1 LMG      -0.078400
     27 C20        101.5760    98.0620    71.6560 c3         1 LMG      -0.075400
     28 C21        100.5140    98.0160    72.7460 c3         1 LMG      -0.078400
     29 C22        100.5050    96.7060    73.5240 c3         1 LMG      -0.072400
     30 C23         99.4470    96.6430    74.6220 c3         1 LMG      -0.075400
     31 C24         98.0160    96.5860    74.0950 c3         1 LMG      -0.074400
     32 C25         96.9490    96.5670    75.1860 c3         1 LMG      -0.075400
     33 C26         96.9440    95.3050    76.0420 c3         1 LMG      -0.076400
     34 C27         95.8300    95.3110    77.0790 c3         1 LMG      -0.090100
     35 O8          97.1080   101.3470    61.2590 os         1 LMG      -0.450100
     36 C28         96.4140   100.4980    62.0150 c          1 LMG       0.595100
     37 O10         95.3060   100.7310    62.4260 o          1 LMG      -0.485000
     38 C29         97.1730    99.2150    62.2270 c3         1 LMG      -0.136400
     39 C30         96.6920    98.3910    63.4110 c3         1 LMG      -0.067400
     40 C31         97.1270    98.9470    64.7610 c3         1 LMG      -0.076400
     41 C32         96.5990    98.1150    65.9260 c3         1 LMG      -0.072400
     42 C33         97.2380    98.4390    67.2720 c3         1 LMG      -0.072400
     43 C34         97.0300    99.8700    67.7560 c3         1 LMG      -0.076400
     44 C35         97.6030   100.0970    69.1500 c3         1 LMG      -0.079400
     45 C36         97.5110   101.5460    69.6170 c3         1 LMG      -0.072400
     46 C37         98.3160   101.8430    70.8790 c3         1 LMG      -0.075400
     47 C38         97.8630   101.0880    72.1230 c3         1 LMG      -0.075400
     48 C39         98.7390   101.3830    73.3330 c3         1 LMG      -0.076400
     49 C40         98.2820   100.6790    74.6050 c3         1 LMG      -0.077400
     50 C41         99.3090   100.7530    75.7270 c3         1 LMG      -0.075400
     51 C42         98.8210   100.1300    77.0300 c3         1 LMG      -0.074400
     52 C43         99.8730   100.0790    78.1340 c3         1 LMG      -0.073400
     53 C44        101.0430    99.1450    77.8350 c3         1 LMG      -0.077400
     54 C45        102.0300    99.0510    78.9900 c3         1 LMG      -0.089100
     55 HC1         98.7680   101.0670    57.6770 h2         1 LMG       0.028700
     56 HC2         96.6280   102.3360    55.8980 h1         1 LMG       0.088700
     57 HO2         95.7050   100.2010    56.3890 ho         1 LMG       0.522000
     58 HC3         98.3680    99.8590    55.5440 h1         1 LMG       0.036700
     59 HO3         97.1680    99.6180    53.6750 ho         1 LMG       0.448000
     60 HC4         99.4330   100.9780    53.7250 h1         1 LMG       0.050700
     61 HO4         98.8440   103.0490    53.1550 ho         1 LMG       0.506000
     62 HC5        100.3750   101.1630    55.9280 h1         1 LMG       0.046700
     63 HO5        102.2450   103.0330    53.5920 ho         1 LMG       0.514000
     64 HC61       100.4630   103.9680    54.7310 h1         1 LMG       0.040700
     65 HC62       101.6230   103.2530    55.8510 h1         1 LMG       0.040700
     66 HC71        99.0310   102.1080    59.6610 h1         1 LMG       0.048200
     67 HC72        99.2350   103.7680    59.0850 h1         1 LMG       0.048200
     68 HC8         97.1000   104.4480    60.0930 h1         1 LMG       0.085700
     69 HC91        95.9310   103.0080    61.6970 h1         1 LMG       0.073200
     70 HC92        95.8010   102.4030    60.0470 h1         1 LMG       0.073200
     71 H111       100.1700   104.8820    63.0680 hc         1 LMG       0.072200
     72 H112        99.0000   105.6800    64.1190 hc         1 LMG       0.072200
     73 H121        98.1640   103.4830    64.9030 hc         1 LMG       0.052700
     74 H122        99.2050   102.6420    63.7710 hc         1 LMG       0.052700
     75 H131       101.2170   103.5420    64.8910 hc         1 LMG       0.039200
     76 H132       100.2200   104.4220    66.0320 hc         1 LMG       0.039200
     77 H141        99.3000   102.3250    66.9320 hc         1 LMG       0.040200
     78 H142       100.1080   101.3890    65.6940 hc         1 LMG       0.040200
     79 H151       102.3260   102.0880    66.5870 hc         1 LMG       0.036700
     80 H152       101.5390   103.0340    67.8330 hc         1 LMG       0.036700
     81 H161       100.4790   100.9840    68.7450 hc         1 LMG       0.040200
     82 H162       101.1950   100.0200    67.4740 hc         1 LMG       0.040200
     83 H171       103.4830   100.6940    68.2850 hc         1 LMG       0.037200
     84 H172       102.7420   101.5490    69.6200 hc         1 LMG       0.037200
     85 H181       102.4620    98.5530    69.0800 hc         1 LMG       0.037200
     86 H182       103.5860    99.2650    70.2160 hc         1 LMG       0.037200
     87 H191       101.6720   100.2090    71.5230 hc         1 LMG       0.039200
     88 H192       100.5440    99.4660    70.4120 hc         1 LMG       0.039200
     89 H201       101.4380    97.2110    70.9800 hc         1 LMG       0.035700
     90 H202       102.5670    97.9360    72.1050 hc         1 LMG       0.035700
     91 H211       100.6760    98.8450    73.4450 hc         1 LMG       0.039200
     92 H212        99.5340    98.1960    72.2910 hc         1 LMG       0.039200
     93 H221       100.3580    95.8700    72.8310 hc         1 LMG       0.036700
     94 H222       101.4930    96.5580    73.9700 hc         1 LMG       0.036700
     95 H231        99.6400    95.7680    75.2480 hc         1 LMG       0.039200
     96 H232        99.5570    97.5130    75.2800 hc         1 LMG       0.039200
     97 H241        97.8320    97.4460    73.4450 hc         1 LMG       0.037700
     98 H242        97.9030    95.7010    73.4590 hc         1 LMG       0.037700
     99 H251        97.0780    97.4420    75.8340 hc         1 LMG       0.037200
    100 H252        95.9640    96.6790    74.7230 hc         1 LMG       0.037200
    101 H261        96.8390    94.4310    75.3920 hc         1 LMG       0.037200
    102 H262        97.9060    95.1920    76.5480 hc         1 LMG       0.037200
    103 H271        95.8410    94.4050    77.6860 hc         1 LMG       0.031033
    104 H272        95.9290    96.1620    77.7550 hc         1 LMG       0.031033
    105 H273        94.8490    95.3800    76.6050 hc         1 LMG       0.031033
    106 H291        97.0610    98.6390    61.3000 hc         1 LMG       0.070200
    107 H292        98.2410    99.4300    62.3110 hc         1 LMG       0.070200
    108 H301        95.6040    98.2910    63.3770 hc         1 LMG       0.051200
    109 H302        97.0900    97.3790    63.3030 hc         1 LMG       0.051200
    110 H311        98.2230    98.9730    64.7990 hc         1 LMG       0.040700
    111 H312        96.7970    99.9850    64.8640 hc         1 LMG       0.040700
    112 H321        95.5120    98.2370    65.9940 hc         1 LMG       0.039200
    113 H322        96.7690    97.0550    65.7080 hc         1 LMG       0.039200
    114 H331        96.8440    97.7490    68.0250 hc         1 LMG       0.036200
    115 H332        98.3130    98.2370    67.2130 hc         1 LMG       0.036200
    116 H341        97.5000   100.5710    67.0590 hc         1 LMG       0.039700
    117 H342        95.9600   100.1090    67.7520 hc         1 LMG       0.039700
    118 H351        97.0950    99.4370    69.8600 hc         1 LMG       0.037200
    119 H352        98.6530    99.7860    69.1560 hc         1 LMG       0.037200
    120 H361        97.8740   102.1970    68.8150 hc         1 LMG       0.038200
    121 H362        96.4620   101.8170    69.7730 hc         1 LMG       0.038200
    122 H371        99.3710   101.6120    70.6890 hc         1 LMG       0.037700
    123 H372        98.2780   102.9180    71.0840 hc         1 LMG       0.037700
    124 H381        96.8200   101.3430    72.3440 hc         1 LMG       0.038200
    125 H382        97.8800   100.0090    71.9370 hc         1 LMG       0.038200
    126 H391        99.7670   101.0800    73.1040 hc         1 LMG       0.036700
    127 H392        98.7770   102.4630    73.5080 hc         1 LMG       0.036700
    128 H401        97.3310   101.1090    74.9390 hc         1 LMG       0.038700
    129 H402        98.0750    99.6260    74.3840 hc         1 LMG       0.038700
    130 H411       100.2230   100.2530    75.3910 hc         1 LMG       0.037200
    131 H412        99.5850   101.7980    75.9090 hc         1 LMG       0.037200
    132 H421        97.9510   100.6920    77.3840 hc         1 LMG       0.037700
    133 H422        98.4610    99.1140    76.8350 hc         1 LMG       0.037700
    134 H431       100.2540   101.0880    78.3270 hc         1 LMG       0.037200
    135 H432        99.3970    99.7550    79.0650 hc         1 LMG       0.037200
    136 H441       100.6530    98.1480    77.6010 hc         1 LMG       0.037200
    137 H442       101.5700    99.4800    76.9390 hc         1 LMG       0.037200
    138 H451       102.8530    98.3740    78.7590 hc         1 LMG       0.030700
    139 H452       102.4600   100.0270    79.2210 hc         1 LMG       0.030700
    140 H453       101.5440    98.6830    79.8960 hc         1 LMG       0.030700
    141 O5         101.6060   102.4100    53.9470 oh         1 LMG      -0.732000
@<TRIPOS>BOND
     1     1     2 1   
     2     1     3 1   
     3     1    11 1   
     4     1    55 1   
     5     2    12 1   
     6     3     4 1   
     7     3     5 1   
     8     3    56 1   
     9     4    57 1   
    10     5     6 1   
    11     5     7 1   
    12     5    58 1   
    13     6    59 1   
    14     7     8 1   
    15     7     9 1   
    16     7    60 1   
    17     8    61 1   
    18     9    10 1   
    19     9    11 1   
    20     9    62 1   
    21    10    64 1   
    22    10    65 1   
    23    10   141 1   
    24    12    13 1   
    25    12    66 1   
    26    12    67 1   
    27    13    14 1   
    28    13    15 1   
    29    13    68 1   
    30    14    35 1   
    31    14    69 1   
    32    14    70 1   
    33    15    16 1   
    34    16    17 2   
    35    16    18 1   
    36    18    19 1   
    37    18    71 1   
    38    18    72 1   
    39    19    20 1   
    40    19    73 1   
    41    19    74 1   
    42    20    21 1   
    43    20    75 1   
    44    20    76 1   
    45    21    22 1   
    46    21    77 1   
    47    21    78 1   
    48    22    23 1   
    49    22    79 1   
    50    22    80 1   
    51    23    24 1   
    52    23    81 1   
    53    23    82 1   
    54    24    25 1   
    55    24    83 1   
    56    24    84 1   
    57    25    26 1   
    58    25    85 1   
    59    25    86 1   
    60    26    27 1   
    61    26    87 1   
    62    26    88 1   
    63    27    28 1   
    64    27    89 1   
    65    27    90 1   
    66    28    29 1   
    67    28    91 1   
    68    28    92 1   
    69    29    30 1   
    70    29    93 1   
    71    29    94 1   
    72    30    31 1   
    73    30    95 1   
    74    30    96 1   
    75    31    32 1   
    76    31    97 1   
    77    31    98 1   
    78    32    33 1   
    79    32    99 1   
    80    32   100 1   
    81    33    34 1   
    82    33   101 1   
    83    33   102 1   
    84    34   103 1   
    85    34   104 1   
    86    34   105 1   
    87    35    36 1   
    88    36    37 2   
    89    36    38 1   
    90    38    39 1   
    91    38   106 1   
    92    38   107 1   
    93    39    40 1   
    94    39   108 1   
    95    39   109 1   
    96    40    41 1   
    97    40   110 1   
    98    40   111 1   
    99    41    42 1   
   100    41   112 1   
   101    41   113 1   
   102    42    43 1   
   103    42   114 1   
   104    42   115 1   
   105    43    44 1   
   106    43   116 1   
   107    43   117 1   
   108    44    45 1   
   109    44   118 1   
   110    44   119 1   
   111    45    46 1   
   112    45   120 1   
   113    45   121 1   
   114    46    47 1   
   115    46   122 1   
   116    46   123 1   
   117    47    48 1   
   118    47   124 1   
   119    47   125 1   
   120    48    49 1   
   121    48   126 1   
   122    48   127 1   
   123    49    50 1   
   124    49   128 1   
   125    49   129 1   
   126    50    51 1   
   127    50   130 1   
   128    50   131 1   
   129    51    52 1   
   130    51   132 1   
   131    51   133 1   
   132    52    53 1   
   133    52   134 1   
   134    52   135 1   
   135    53    54 1   
   136    53   136 1   
   137    53   137 1   
   138    54   138 1   
   139    54   139 1   
   140    54   140 1   
   141    63   141 1   
@<TRIPOS>SUBSTRUCTURE
     1 LMG         1 TEMP              0 ****  ****    0 ROOT
