@<TRIPOS>MOLECULE
LMI
   47    47     1     0     0
SMALL
No Charge or Current Charge


@<TRIPOS>ATOM
      1 C11         29.7700    70.6930   113.5240 c          1 LMI       0.608100
      2 C12         30.0600    71.9670   114.3270 c3         1 LMI      -0.180400
      3 C13         28.7450    72.6240   114.7790 c3         1 LMI       0.130000
      4 C15         29.3580    75.0350   115.0980 c          1 LMI       0.649100
      5 C20         28.8490    78.0280   115.1630 c3         1 LMI      -0.108767
      6 C1          31.5160    69.2700   116.0630 ca         1 LMI      -0.098300
      7 C2          32.5350    68.5180   115.4510 ca         1 LMI      -0.111500
      8 C3          33.8560    68.5870   115.9260 ca         1 LMI      -0.067500
      9 C4          34.1880    69.4060   117.0290 ca         1 LMI      -0.150600
     10 C5          33.1560    70.1590   117.6420 ca         1 LMI      -0.067500
     11 C6          31.8360    70.0860   117.1630 ca         1 LMI      -0.111500
     12 C7          35.6260    69.4560   117.5140 c          1 LMI       0.619700
     13 C9          30.0820    69.1940   115.5480 c3         1 LMI       0.151300
     14 C17         29.9170    77.2680   115.9910 c3         1 LMI       0.225000
     15 C18         31.3310    77.3250   115.3580 c3         1 LMI      -0.108767
     16 C19         29.9620    77.8260   117.4310 c3         1 LMI      -0.108767
     17 N8          35.8800    70.2250   118.6460 ns         1 LMI      -0.393400
     18 N10         29.9870    69.4670   114.1100 ns         1 LMI      -0.513900
     19 N14         28.9840    73.8180   115.5900 ns         1 LMI      -0.513900
     20 O16         29.5140    75.8880   116.1560 os         1 LMI      -0.484100
     21 O21         36.5260    68.8600   116.9340 o          1 LMI      -0.567100
     22 O22         29.4210    70.7440   112.3560 o          1 LMI      -0.590100
     23 O23         29.5160    75.2860   113.9150 o          1 LMI      -0.542000
     24 O24         37.1530    70.1450   119.3340 oh         1 LMI      -0.412100
     25 H1          30.6630    71.7560   115.2140 hc         1 LMI       0.064700
     26 H2          30.5950    72.6720   113.6810 hc         1 LMI       0.064700
     27 H3          28.1450    72.9010   113.9000 h1         1 LMI       0.068200
     28 H4          28.1600    71.9100   115.3740 h1         1 LMI       0.068200
     29 H5          27.8420    77.8260   115.5460 hc         1 LMI       0.049033
     30 H6          29.0210    79.1100   115.2200 hc         1 LMI       0.049033
     31 H7          28.8780    77.7520   114.1040 hc         1 LMI       0.049033
     32 H8          32.3060    67.8770   114.6020 ha         1 LMI       0.121000
     33 H9          34.6230    67.9950   115.4310 ha         1 LMI       0.128000
     34 H10         33.3560    70.8100   118.4890 ha         1 LMI       0.128000
     35 H11         31.0600    70.6730   117.6510 ha         1 LMI       0.121000
     36 H12         29.4400    69.8950   116.0980 h1         1 LMI       0.059700
     37 H13         29.6930    68.1840   115.7340 h1         1 LMI       0.059700
     38 H14         32.0170    76.6440   115.8740 hc         1 LMI       0.049033
     39 H15         31.3160    77.0610   114.2950 hc         1 LMI       0.049033
     40 H16         31.7420    78.3390   115.4330 hc         1 LMI       0.049033
     41 H17         30.6820    77.2690   118.0430 hc         1 LMI       0.049033
     42 H18         30.2610    78.8810   117.4310 hc         1 LMI       0.049033
     43 H19         28.9780    77.7520   117.9090 hc         1 LMI       0.049033
     44 H20         35.0980    70.5730   119.1960 hn         1 LMI       0.341500
     45 H21         29.8540    68.6730   113.4950 hn         1 LMI       0.322500
     46 H22         28.8860    73.7610   116.5960 hn         1 LMI       0.317500
     47 H23         37.4210    71.0890   119.4400 ho         1 LMI       0.440000
@<TRIPOS>BOND
     1     1     2 1   
     2     1    18 1   
     3     1    22 2   
     4     2     3 1   
     5     2    25 1   
     6     2    26 1   
     7     3    19 1   
     8     3    27 1   
     9     3    28 1   
    10     4    19 1   
    11     4    20 1   
    12     4    23 2   
    13     5    14 1   
    14     5    29 1   
    15     5    30 1   
    16     5    31 1   
    17     6     7 ar  
    18     6    11 ar  
    19     6    13 1   
    20     7     8 ar  
    21     7    32 1   
    22     8     9 ar  
    23     8    33 1   
    24     9    10 ar  
    25     9    12 1   
    26    10    11 ar  
    27    10    34 1   
    28    11    35 1   
    29    12    17 1   
    30    12    21 2   
    31    13    18 1   
    32    13    36 1   
    33    13    37 1   
    34    14    15 1   
    35    14    16 1   
    36    14    20 1   
    37    15    38 1   
    38    15    39 1   
    39    15    40 1   
    40    16    41 1   
    41    16    42 1   
    42    16    43 1   
    43    17    24 1   
    44    17    44 1   
    45    18    45 1   
    46    19    46 1   
    47    24    47 1   
@<TRIPOS>SUBSTRUCTURE
     1 LMI         1 TEMP              0 ****  ****    0 ROOT
