@<TRIPOS>MOLECULE
LMI
   47    47     1     0     0
SMALL
abcg2


@<TRIPOS>ATOM
      1 C11         29.5930    70.4250   113.9980 c          1 LMI       0.608100
      2 C12         29.6910    71.5850   114.9660 c3         1 LMI      -0.180400
      3 C13         29.4720    72.9220   114.2800 c3         1 LMI       0.130000
      4 C15         29.6830    75.2770   114.8950 c          1 LMI       0.649100
      5 C20         28.6470    78.1290   115.1180 c3         1 LMI      -0.108767
      6 C1          31.5060    69.0350   116.2580 ca         1 LMI      -0.098300
      7 C2          32.5150    68.9640   115.3030 ca         1 LMI      -0.111500
      8 C3          33.8450    69.0690   115.6720 ca         1 LMI      -0.067500
      9 C4          34.1970    69.2670   117.0040 ca         1 LMI      -0.150600
     10 C5          33.1900    69.3310   117.9650 ca         1 LMI      -0.067500
     11 C6          31.8610    69.2150   117.5910 ca         1 LMI      -0.111500
     12 C7          35.6480    69.3540   117.3470 c          1 LMI       0.619700
     13 C9          30.0470    68.8740   115.8950 c3         1 LMI       0.151300
     14 C17         29.7950    77.5040   115.9020 c3         1 LMI       0.225000
     15 C18         31.1520    77.9040   115.3340 c3         1 LMI      -0.108767
     16 C19         29.7100    77.9290   117.3630 c3         1 LMI      -0.108767
     17 N8          35.9250    70.1830   118.3690 ns         1 LMI      -0.393400
     18 N10         29.7210    69.1900   114.5280 ns         1 LMI      -0.513900
     19 N14         29.5800    73.9820   115.2590 ns         1 LMI      -0.513900
     20 O16         29.6630    76.0620   115.9730 os         1 LMI      -0.484100
     21 O21         36.5020    68.7420   116.7290 o          1 LMI      -0.567100
     22 O22         29.3950    70.5910   112.8040 o          1 LMI      -0.590100
     23 O23         29.7900    75.6510   113.7440 o          1 LMI      -0.542000
     24 O24         37.1800    70.2460   118.8850 oh         1 LMI      -0.412100
     25 H1          28.9550    71.4480   115.7650 hc         1 LMI       0.064700
     26 H2          30.6710    71.5720   115.4540 hc         1 LMI       0.064700
     27 H3          30.2240    73.0720   113.5060 h1         1 LMI       0.068200
     28 H4          28.4950    72.9370   113.7890 h1         1 LMI       0.068200
     29 H5          27.6830    77.7920   115.5020 hc         1 LMI       0.049033
     30 H6          28.6870    79.2130   115.2330 hc         1 LMI       0.049033
     31 H7          28.6980    77.9060   114.0550 hc         1 LMI       0.049033
     32 H8          32.2670    68.8260   114.2580 ha         1 LMI       0.121000
     33 H9          34.6150    69.0050   114.9150 ha         1 LMI       0.128000
     34 H10         33.4270    69.4500   119.0150 ha         1 LMI       0.128000
     35 H11         31.0900    69.2640   118.3510 ha         1 LMI       0.121000
     36 H12         29.4350    69.4620   116.5810 h1         1 LMI       0.059700
     37 H13         29.7550    67.8350   116.0600 h1         1 LMI       0.059700
     38 H14         31.9620    77.4190   115.8810 hc         1 LMI       0.049033
     39 H15         31.2520    77.6610   114.2780 hc         1 LMI       0.049033
     40 H16         31.2800    78.9810   115.4410 hc         1 LMI       0.049033
     41 H17         30.5120    77.4820   117.9530 hc         1 LMI       0.049033
     42 H18         29.8020    79.0120   117.4390 hc         1 LMI       0.049033
     43 H19         28.7540    77.6420   117.8050 hc         1 LMI       0.049033
     44 H20         35.2310    70.7370   118.8510 hn         1 LMI       0.341500
     45 H21         29.6810    68.4240   113.8720 hn         1 LMI       0.322500
     46 H22         29.3790    73.7690   116.2230 hn         1 LMI       0.317500
     47 H23         37.6450    70.9390   118.3950 ho         1 LMI       0.440000
@<TRIPOS>BOND
     1     1     2 1   
     2     1    18 1   
     3     1    22 2   
     4     2     3 1   
     5     2    25 1   
     6     2    26 1   
     7     3    19 1   
     8     3    27 1   
     9     3    28 1   
    10     4    19 1   
    11     4    20 1   
    12     4    23 2   
    13     5    14 1   
    14     5    29 1   
    15     5    30 1   
    16     5    31 1   
    17     6     7 ar  
    18     6    11 ar  
    19     6    13 1   
    20     7     8 ar  
    21     7    32 1   
    22     8     9 ar  
    23     8    33 1   
    24     9    10 ar  
    25     9    12 1   
    26    10    11 ar  
    27    10    34 1   
    28    11    35 1   
    29    12    17 1   
    30    12    21 2   
    31    13    18 1   
    32    13    36 1   
    33    13    37 1   
    34    14    15 1   
    35    14    16 1   
    36    14    20 1   
    37    15    38 1   
    38    15    39 1   
    39    15    40 1   
    40    16    41 1   
    41    16    42 1   
    42    16    43 1   
    43    17    24 1   
    44    17    44 1   
    45    18    45 1   
    46    19    46 1   
    47    24    47 1   
@<TRIPOS>SUBSTRUCTURE
     1 LMI         1 TEMP              0 ****  ****    0 ROOT
