@<TRIPOS>MOLECULE
LMJ
   50    55     1     0     0
SMALL
No Charge or Current Charge


@<TRIPOS>ATOM
      1 C11         -1.7710    -1.8320     0.5350 c6         1 LMJ       0.023200
      2 C12         -1.7560    -2.9650     1.6080 c3         1 LMJ      -0.086600
      3 C13         -2.0910    -2.5450    -0.8260 c3         1 LMJ      -0.086600
      4 C14         -2.8490    -0.7260     0.9850 c6         1 LMJ      -0.046700
      5 C15         -4.3670    -1.0870     0.7670 c6         1 LMJ      -0.056400
      6 C16         -2.5340     0.7300     0.4090 c6         1 LMJ       0.118400
      7 C17         -1.0570     1.2280     0.6490 c6         1 LMJ      -0.000200
      8 N18         -3.4960     1.6460     1.0770 ns         1 LMJ      -0.514900
      9 C19         -4.8600     1.4990     0.8870 c          1 LMJ       0.540000
     10 C20         -5.0600     0.1350     0.0510 c5         1 LMJ       0.115200
     11 C21         -6.5470    -0.0760    -0.3990 c5         1 LMJ      -0.056400
     12 C23         -5.2180     0.8800    -2.1870 c5         1 LMJ       0.176800
     13 C02          4.1120    -0.1750    -0.0350 ca         1 LMJ      -0.002900
     14 C03          3.2430    -1.2870     0.0000 ca         1 LMJ      -0.091000
     15 C04          1.8710    -1.0480     0.1630 ca         1 LMJ      -0.048200
     16 C05          1.3770     0.2180     0.2840 ca         1 LMJ      -0.073800
     17 C06          2.2090     1.3450     0.2540 ca         1 LMJ      -0.055000
     18 C07          3.5950     1.1420     0.0920 ca         1 LMJ       0.107000
     19 C09         -0.0450     0.1240     0.4330 cc         1 LMJ      -0.144400
     20 C10         -0.3450    -1.2400     0.4050 cd         1 LMJ      -0.034300
     21 C22         -6.4870     0.0270    -1.9560 c5         1 LMJ      -0.086400
     22 C25         -2.9270     0.7750    -1.1060 c6         1 LMJ       0.173800
     23 N24         -4.3070     0.1990    -1.2530 n3         1 LMJ      -0.748600
     24 N27          0.8510    -1.9780     0.2280 na         1 LMJ      -0.211700
     25 O26         -5.6850     2.2960     1.3120 o          1 LMJ      -0.553000
     26 Br01         5.9930    -0.4810    -0.2570 br         1 LMJ      -0.072100
     27 Cl08         4.6640     2.5440     0.0510 cl         1 LMJ      -0.181000
     28 H1          -1.0740    -3.7790     1.3350 hc         1 LMJ       0.041367
     29 H2          -1.4310    -2.5830     2.5830 hc         1 LMJ       0.041367
     30 H3          -2.7520    -3.4050     1.7420 hc         1 LMJ       0.041367
     31 H4          -2.2140    -1.8460    -1.6560 hc         1 LMJ       0.041367
     32 H5          -1.2810    -3.2250    -1.1130 hc         1 LMJ       0.041367
     33 H6          -2.9940    -3.1630    -0.7790 hc         1 LMJ       0.041367
     34 H7          -2.7200    -0.6170     2.0710 hc         1 LMJ       0.060700
     35 H8          -4.5200    -1.9990     0.1820 hc         1 LMJ       0.058200
     36 H9          -4.8510    -1.2650     1.7370 hc         1 LMJ       0.058200
     37 H10         -0.8410     2.0930     0.0070 hc         1 LMJ       0.058200
     38 H11         -0.9630     1.5900     1.6820 hc         1 LMJ       0.058200
     39 H12         -3.1700     2.4620     1.5790 hn         1 LMJ       0.321500
     40 H13         -6.9340    -1.0490    -0.0770 hc         1 LMJ       0.060200
     41 H14         -7.2190     0.6810     0.0190 hc         1 LMJ       0.060200
     42 H15         -4.8680     0.8340    -3.2280 h1         1 LMJ       0.038700
     43 H16         -5.3780     1.9340    -1.9150 h1         1 LMJ       0.038700
     44 H17          3.6280    -2.2990    -0.0950 ha         1 LMJ       0.133000
     45 H18          1.8010     2.3470     0.3530 ha         1 LMJ       0.132000
     46 H19         -6.3780    -0.9630    -2.4140 hc         1 LMJ       0.054200
     47 H20         -7.3840     0.4880    -2.3830 hc         1 LMJ       0.054200
     48 H21         -2.9100     1.8240    -1.4380 h1         1 LMJ       0.051200
     49 H22         -2.1940     0.2420    -1.7250 h1         1 LMJ       0.051200
     50 H24          0.9390    -2.9860     0.1660 hn         1 LMJ       0.355000
@<TRIPOS>BOND
     1     1     2 1   
     2     1     3 1   
     3     1     4 1   
     4     1    20 1   
     5     2    28 1   
     6     2    29 1   
     7     2    30 1   
     8     3    31 1   
     9     3    32 1   
    10     3    33 1   
    11     4     5 1   
    12     4     6 1   
    13     4    34 1   
    14     5    10 1   
    15     5    35 1   
    16     5    36 1   
    17     6     7 1   
    18     6     8 1   
    19     6    22 1   
    20     7    19 1   
    21     7    37 1   
    22     7    38 1   
    23     8     9 1   
    24     8    39 1   
    25     9    10 1   
    26     9    25 2   
    27    10    11 1   
    28    10    23 1   
    29    11    21 1   
    30    11    40 1   
    31    11    41 1   
    32    12    21 1   
    33    12    23 1   
    34    12    42 1   
    35    12    43 1   
    36    13    14 ar  
    37    13    18 ar  
    38    13    26 1   
    39    14    15 ar  
    40    14    44 1   
    41    15    16 ar  
    42    15    24 1   
    43    16    17 ar  
    44    16    19 1   
    45    17    18 ar  
    46    17    45 1   
    47    18    27 1   
    48    19    20 2   
    49    20    24 1   
    50    21    46 1   
    51    21    47 1   
    52    22    23 1   
    53    22    48 1   
    54    22    49 1   
    55    24    50 1   
@<TRIPOS>SUBSTRUCTURE
     1 LMJ         1 TEMP              0 ****  ****    0 ROOT
