@<TRIPOS>MOLECULE
LMJ
   50    55     1     0     0
SMALL
abcg2


@<TRIPOS>ATOM
      1 C11         -1.7750    -1.8260     0.5950 c6         1 LMJ       0.023200
      2 C12         -1.7440    -2.8770     1.7170 c3         1 LMJ      -0.086600
      3 C13         -2.1040    -2.5550    -0.7200 c3         1 LMJ      -0.086600
      4 C14         -2.7820    -0.7200     1.0170 c6         1 LMJ      -0.046700
      5 C15         -4.2680    -1.0910     0.8100 c6         1 LMJ      -0.056400
      6 C16         -2.5570     0.6820     0.3920 c6         1 LMJ       0.118400
      7 C17         -1.1680     1.2220     0.7030 c6         1 LMJ      -0.000200
      8 N18         -3.5600     1.5600     0.9870 ns         1 LMJ      -0.514900
      9 C19         -4.8550     1.2880     0.7490 c          1 LMJ       0.540000
     10 C20         -4.9420    -0.0160    -0.0420 c5         1 LMJ       0.115200
     11 C21         -6.3360    -0.3350    -0.5400 c5         1 LMJ      -0.056400
     12 C23         -5.0360     0.7500    -2.2900 c5         1 LMJ       0.176800
     13 C02          3.9700    -0.1630    -0.1130 ca         1 LMJ      -0.002900
     14 C03          3.1280    -1.2580    -0.0440 ca         1 LMJ      -0.091000
     15 C04          1.7760    -1.0160     0.1640 ca         1 LMJ      -0.048200
     16 C05          1.2600     0.2900     0.3060 ca         1 LMJ      -0.073800
     17 C06          2.1290     1.3780     0.2370 ca         1 LMJ      -0.055000
     18 C07          3.4740     1.1450     0.0270 ca         1 LMJ       0.107000
     19 C09         -0.1490     0.1590     0.4960 cc         1 LMJ      -0.144400
     20 C10         -0.4300    -1.1770     0.4660 cd         1 LMJ      -0.034300
     21 C22         -6.4780     0.5230    -1.8010 c5         1 LMJ      -0.086400
     22 C25         -2.8590     0.6800    -1.1100 c6         1 LMJ       0.173800
     23 N24         -4.1840     0.1260    -1.2880 n3         1 LMJ      -0.748600
     24 N27          0.7310    -1.8830     0.2690 na         1 LMJ      -0.211700
     25 O26         -5.7930     1.9810     1.1130 o          1 LMJ      -0.553000
     26 BR01         5.8060    -0.4600    -0.4000 br         1 LMJ      -0.072100
     27 CL08         4.5430     2.5030    -0.0630 cl         1 LMJ      -0.181000
     28 H1          -1.0870    -3.7130     1.4700 hc         1 LMJ       0.041367
     29 H2          -1.4060    -2.4470     2.6600 hc         1 LMJ       0.041367
     30 H3          -2.7420    -3.2910     1.8750 hc         1 LMJ       0.041367
     31 H4          -2.2420    -1.8770    -1.5580 hc         1 LMJ       0.041367
     32 H5          -1.2960    -3.2420    -0.9780 hc         1 LMJ       0.041367
     33 H6          -3.0030    -3.1620    -0.6240 hc         1 LMJ       0.041367
     34 H7          -2.6140    -0.5680     2.0880 hc         1 LMJ       0.060700
     35 H8          -4.3860    -2.0430     0.2940 hc         1 LMJ       0.058200
     36 H9          -4.7820    -1.1900     1.7680 hc         1 LMJ       0.058200
     37 H10         -0.9560     2.0950     0.0790 hc         1 LMJ       0.058200
     38 H11         -1.1440     1.5760     1.7400 hc         1 LMJ       0.058200
     39 H12         -3.2890     2.4150     1.4520 hn         1 LMJ       0.321500
     40 H13         -6.3850    -1.3980    -0.7880 hc         1 LMJ       0.060200
     41 H14         -7.1060    -0.1360     0.2040 hc         1 LMJ       0.060200
     42 H15         -4.8540     0.3070    -3.2730 h1         1 LMJ       0.038700
     43 H16         -4.8250     1.8250    -2.3900 h1         1 LMJ       0.038700
     44 H17          3.5070    -2.2660    -0.1530 ha         1 LMJ       0.133000
     45 H18          1.7650     2.3910     0.3440 ha         1 LMJ       0.132000
     46 H19         -7.0990     0.0420    -2.5550 hc         1 LMJ       0.054200
     47 H20         -6.9460     1.4770    -1.5580 hc         1 LMJ       0.054200
     48 H21         -2.8030     1.7220    -1.4600 h1         1 LMJ       0.051200
     49 H22         -2.1060     0.1220    -1.6730 h1         1 LMJ       0.051200
     50 H24          0.8060    -2.8840     0.2000 hn         1 LMJ       0.355000
@<TRIPOS>BOND
     1     1     2 1   
     2     1     3 1   
     3     1     4 1   
     4     1    20 1   
     5     2    28 1   
     6     2    29 1   
     7     2    30 1   
     8     3    31 1   
     9     3    32 1   
    10     3    33 1   
    11     4     5 1   
    12     4     6 1   
    13     4    34 1   
    14     5    10 1   
    15     5    35 1   
    16     5    36 1   
    17     6     7 1   
    18     6     8 1   
    19     6    22 1   
    20     7    19 1   
    21     7    37 1   
    22     7    38 1   
    23     8     9 1   
    24     8    39 1   
    25     9    10 1   
    26     9    25 2   
    27    10    11 1   
    28    10    23 1   
    29    11    21 1   
    30    11    40 1   
    31    11    41 1   
    32    12    21 1   
    33    12    23 1   
    34    12    42 1   
    35    12    43 1   
    36    13    14 ar  
    37    13    18 ar  
    38    13    26 1   
    39    14    15 ar  
    40    14    44 1   
    41    15    16 ar  
    42    15    24 1   
    43    16    17 ar  
    44    16    19 1   
    45    17    18 ar  
    46    17    45 1   
    47    18    27 1   
    48    19    20 2   
    49    20    24 1   
    50    21    46 1   
    51    21    47 1   
    52    22    23 1   
    53    22    48 1   
    54    22    49 1   
    55    24    50 1   
@<TRIPOS>SUBSTRUCTURE
     1 LMJ         1 TEMP              0 ****  ****    0 ROOT
