@<TRIPOS>MOLECULE
LML
   21    20     1     0     0
SMALL
bcc


@<TRIPOS>ATOM
      1 C1          -0.9920     0.0960    -1.6830 c          1 LML       0.951600
      2 O1          -2.0010     0.8190    -1.5570 o          1 LML      -0.882550
      3 OXT         -0.5400    -0.3430    -2.7640 o          1 LML      -0.882550
      4 CA          -0.2150    -0.3200    -0.4160 c3         1 LML      -0.306700
      5 CB          -0.7770     0.2820     0.8670 c3         1 LML      -0.017400
      6 CG           0.0050    -0.0410     2.1420 c3         1 LML      -0.067700
      7 CD1         -0.6990     0.5620     3.3540 c3         1 LML      -0.075100
      8 CD2          0.2260    -1.5370     2.3380 c3         1 LML      -0.075100
      9 C            1.2600     0.0570    -0.6240 c          1 LML       0.951600
     10 O            1.5120     1.2820    -0.6580 o          1 LML      -0.882550
     11 O2           2.0990    -0.8610    -0.7440 o          1 LML      -0.882550
     12 HA          -0.2850    -1.4120    -0.3530 hc         1 LML       0.011700
     13 HB1         -1.8110    -0.0540     1.0000 hc         1 LML       0.020700
     14 HB2         -0.8290     1.3680     0.7590 hc         1 LML       0.020700
     15 HG           0.9900     0.4330     2.0610 hc         1 LML       0.063700
     16 HD11        -0.1170     0.4250     4.2680 hc         1 LML       0.008533
     17 HD12        -0.8680     1.6340     3.2270 hc         1 LML       0.008533
     18 HD13        -1.6740     0.0940     3.5130 hc         1 LML       0.008533
     19 HD21        -0.7220    -2.0830     2.3340 hc         1 LML       0.008533
     20 HD22         0.8560    -1.9530     1.5510 hc         1 LML       0.008533
     21 HD23         0.7150    -1.7400     3.2930 hc         1 LML       0.008533
@<TRIPOS>BOND
     1     1     2 1   
     2     1     3 1   
     3     1     4 1   
     4     4     5 1   
     5     4     9 1   
     6     4    12 1   
     7     5     6 1   
     8     5    13 1   
     9     5    14 1   
    10     6     7 1   
    11     6     8 1   
    12     6    15 1   
    13     7    16 1   
    14     7    17 1   
    15     7    18 1   
    16     8    19 1   
    17     8    20 1   
    18     8    21 1   
    19     9    10 1   
    20     9    11 1   
@<TRIPOS>SUBSTRUCTURE
     1 LML         1 TEMP              0 ****  ****    0 ROOT
