@<TRIPOS>MOLECULE
LML
   21    20     1     0     0
SMALL
No Charge or Current Charge


@<TRIPOS>ATOM
      1 C1          -0.9530     0.0370    -1.7050 c          1 LML       0.741000
      2 O1          -1.3610     1.1710    -1.9050 o          1 LML      -0.777250
      3 OXT         -1.2550    -0.9040    -2.4250 o          1 LML      -0.777250
      4 CA          -0.1140    -0.2600    -0.4670 c3         1 LML      -0.306700
      5 CB          -0.7960     0.2090     0.8530 c3         1 LML      -0.017400
      6 CG          -0.0200    -0.1070     2.1650 c3         1 LML      -0.067700
      7 CD1         -0.7100     0.5480     3.3840 c3         1 LML      -0.075100
      8 CD2          0.1780    -1.6240     2.4030 c3         1 LML      -0.075100
      9 C            1.2650     0.3440    -0.7030 c          1 LML       0.741000
     10 O            1.4160     1.5550    -0.6410 o          1 LML      -0.777250
     11 O2           2.1980    -0.4240    -0.8880 o          1 LML      -0.777250
     12 HA           0.0120    -1.3500    -0.4370 hc         1 LML       0.011700
     13 HB1         -1.7910    -0.2490     0.9130 hc         1 LML       0.020700
     14 HB2         -0.9630     1.2930     0.8000 hc         1 LML       0.020700
     15 HG           0.9760     0.3450     2.0850 hc         1 LML       0.063700
     16 HD11        -0.1310     0.3710     4.2990 hc         1 LML       0.008533
     17 HD12        -0.7960     1.6320     3.2460 hc         1 LML       0.008533
     18 HD13        -1.7170     0.1390     3.5300 hc         1 LML       0.008533
     19 HD21        -0.7860    -2.1450     2.4260 hc         1 LML       0.008533
     20 HD22         0.7960    -2.0720     1.6160 hc         1 LML       0.008533
     21 HD23         0.6860    -1.8020     3.3590 hc         1 LML       0.008533
@<TRIPOS>BOND
     1     1     2 1   
     2     1     3 1   
     3     1     4 1   
     4     4     5 1   
     5     4     9 1   
     6     4    12 1   
     7     5     6 1   
     8     5    13 1   
     9     5    14 1   
    10     6     7 1   
    11     6     8 1   
    12     6    15 1   
    13     7    16 1   
    14     7    17 1   
    15     7    18 1   
    16     8    19 1   
    17     8    20 1   
    18     8    21 1   
    19     9    10 1   
    20     9    11 1   
@<TRIPOS>SUBSTRUCTURE
     1 LML         1 TEMP              0 ****  ****    0 ROOT
