@<TRIPOS>MOLECULE
LMM
   44    47     1     0     0
SMALL
bcc


@<TRIPOS>ATOM
      1 F28         -6.9440    -2.0650     0.5850 f          1 LMM      -0.119900
      2 C25         -5.7130    -1.6310     0.3200 ca         1 LMM      -0.104700
      3 C26         -5.4150    -0.2830     0.3720 ca         1 LMM       0.413700
      4 N27         -4.1890     0.1440     0.1170 nb         1 LMM      -0.686000
      5 C22         -3.2710    -0.7650    -0.1880 ca         1 LMM       0.636300
      6 N23         -3.4850    -2.0690    -0.2640 nb         1 LMM      -0.686000
      7 C24         -4.7080    -2.5140    -0.0090 ca         1 LMM       0.413700
      8 C19         -1.8950    -0.2380    -0.5150 c3         1 LMM       0.223200
      9 C21         -1.9040     0.3900    -1.9130 c3         1 LMM      -0.114100
     10 N18         -0.9290    -1.2970    -0.3860 nu         1 LMM      -0.872900
     11 C8           0.3990    -1.1090    -0.2340 ca         1 LMM       0.957900
     12 N7           1.1550    -2.2020    -0.2290 nb         1 LMM      -0.787000
     13 C6           2.4620    -1.9820    -0.0450 ca         1 LMM       0.540100
     14 C2           3.4650    -3.0140     0.0050 cc         1 LMM      -0.196000
     15 C1           3.1470    -4.4620    -0.1520 c3         1 LMM      -0.022900
     16 N9           0.8220     0.1580    -0.0920 nb         1 LMM      -0.860000
     17 C10          2.1130     0.3780     0.0840 ca         1 LMM       0.802200
     18 C5           3.0050    -0.7120     0.1240 ca         1 LMM      -0.391700
     19 S4           4.7200    -0.7630     0.3400 ss         1 LMM      -0.056500
     20 C3           4.6960    -2.4850     0.2050 cd         1 LMM      -0.087400
     21 N11          2.5550     1.6450     0.2180 nu         1 LMM      -0.816600
     22 C12          1.8060     2.8120     0.1650 cc         1 LMM       0.546200
     23 N16          2.4670     3.9920     0.2890 nc         1 LMM      -0.715000
     24 C15          1.5400     4.9170     0.2010 cd         1 LMM       0.407400
     25 N14          0.3200     4.3890     0.0290 na         1 LMM      -0.182900
     26 C17         -0.9220     5.1100    -0.1220 c3         1 LMM       0.030600
     27 C13          0.4620     3.0240     0.0010 cd         1 LMM      -0.263600
     28 H26         -6.1710     0.4520     0.6270 h4         1 LMM       0.044600
     29 H24         -4.8870    -3.5820    -0.0660 h4         1 LMM       0.044600
     30 H19         -1.6680     0.5380     0.2190 h1         1 LMM       0.091700
     31 H211        -2.1690    -0.3530    -2.6660 hc         1 LMM       0.050700
     32 H212        -2.6200     1.2100    -1.9670 hc         1 LMM       0.050700
     33 H213        -0.9160     0.7840    -2.1510 hc         1 LMM       0.050700
     34 H18         -1.2400    -2.2390    -0.5610 hn         1 LMM       0.471800
     35 H11C         2.7460    -4.6700    -1.1460 hc         1 LMM       0.046367
     36 H12C         4.0310    -5.0810    -0.0090 hc         1 LMM       0.046367
     37 H13C         2.3900    -4.7760     0.5680 hc         1 LMM       0.046367
     38 H3           5.6280    -3.0260     0.2870 h4         1 LMM       0.166000
     39 H11          3.5450     1.7980     0.3430 hn         1 LMM       0.465800
     40 H13         -0.3690     2.3560    -0.1190 h4         1 LMM       0.200000
     41 H15          1.7070     5.9820     0.2550 h5         1 LMM       0.055100
     42 H171        -1.3640     4.9120    -1.0970 h1         1 LMM       0.054367
     43 H172        -1.6290     4.8200     0.6530 h1         1 LMM       0.054367
     44 H173        -0.7280     6.1760    -0.0370 h1         1 LMM       0.054367
@<TRIPOS>BOND
     1     1     2 1   
     2     2     3 ar  
     3     2     7 ar  
     4     3     4 ar  
     5     3    28 1   
     6     4     5 ar  
     7     5     6 ar  
     8     5     8 1   
     9     6     7 ar  
    10     7    29 1   
    11     8     9 1   
    12     8    10 1   
    13     8    30 1   
    14     9    31 1   
    15     9    32 1   
    16     9    33 1   
    17    10    11 1   
    18    10    34 1   
    19    11    12 ar  
    20    11    16 ar  
    21    12    13 ar  
    22    13    14 1   
    23    13    18 ar  
    24    14    15 1   
    25    14    20 2   
    26    15    35 1   
    27    15    36 1   
    28    15    37 1   
    29    16    17 ar  
    30    17    18 ar  
    31    17    21 1   
    32    18    19 1   
    33    19    20 1   
    34    20    38 1   
    35    21    22 1   
    36    21    39 1   
    37    22    23 1   
    38    22    27 2   
    39    23    24 2   
    40    24    25 1   
    41    24    41 1   
    42    25    26 1   
    43    25    27 1   
    44    26    42 1   
    45    26    43 1   
    46    26    44 1   
    47    27    40 1   
@<TRIPOS>SUBSTRUCTURE
     1 LMM         1 TEMP              0 ****  ****    0 ROOT
