@<TRIPOS>MOLECULE
LMM
   44    47     1     0     0
SMALL
No Charge or Current Charge


@<TRIPOS>ATOM
      1 F28         -7.0830    -2.5230     0.7050 f          1 LMM      -0.155000
      2 C25         -5.8780    -2.0020     0.3820 ca         1 LMM       0.061000
      3 C26         -5.4340    -0.7950     0.9500 ca         1 LMM       0.085400
      4 N27         -4.2320    -0.2710     0.6300 nb         1 LMM      -0.160000
      5 C22         -3.4780    -0.9630    -0.2600 ca         1 LMM       0.110300
      6 N23         -3.8260    -2.1310    -0.8570 nb         1 LMM      -0.160000
      7 C24         -5.0300    -2.6490    -0.5320 ca         1 LMM       0.085400
      8 C19         -2.1120    -0.3570    -0.6230 c3         1 LMM       0.223200
      9 C21         -2.0930     0.1750    -2.0710 c3         1 LMM      -0.114100
     10 N18         -1.0180    -1.3340    -0.4320 nu         1 LMM      -0.928100
     11 C8           0.3330    -1.0810    -0.2530 ca         1 LMM       0.431900
     12 N7           1.1160    -2.1720    -0.1790 nb         1 LMM      -0.261000
     13 C6           2.4260    -1.9270    -0.0020 ca         1 LMM       0.211800
     14 C2           3.4400    -2.9560     0.1040 cc         1 LMM      -0.196000
     15 C1           3.1680    -4.4350     0.0300 c3         1 LMM      -0.022900
     16 N9           0.7200     0.2060    -0.1670 nb         1 LMM      -0.334000
     17 C10          2.0330     0.4210     0.0060 ca         1 LMM       0.473900
     18 C5           2.9240    -0.6480     0.0960 ca         1 LMM      -0.388000
     19 S4           4.6790    -0.5890     0.3260 ss         1 LMM       0.070400
     20 C3           4.6910    -2.3760     0.2810 cd         1 LMM      -0.137400
     21 N11          2.4840     1.7200     0.1000 nu         1 LMM      -0.871800
     22 C12          1.8760     2.9190     0.1300 cc         1 LMM       0.480900
     23 N16          2.6750     3.9390     0.4860 nc         1 LMM      -0.715000
     24 C15          1.8970     5.0150     0.4230 cd         1 LMM       0.407400
     25 N14          0.6130     4.6670     0.0150 na         1 LMM      -0.161500
     26 C17         -0.5200     5.5830    -0.1740 c3         1 LMM       0.059900
     27 C13          0.6070     3.2970    -0.1830 cd         1 LMM      -0.231000
     28 H26         -6.0420    -0.2430     1.6650 h4         1 LMM       0.044600
     29 H24         -5.3130    -3.5860    -1.0090 h4         1 LMM       0.044600
     30 H19         -1.9490     0.5000     0.0500 h1         1 LMM       0.091700
     31 H211        -2.2330    -0.6400    -2.7920 hc         1 LMM       0.050700
     32 H212        -2.8980     0.9050    -2.2190 hc         1 LMM       0.050700
     33 H213        -1.1420     0.6720    -2.2940 hc         1 LMM       0.050700
     34 H18         -1.2620    -2.3240    -0.4920 hn         1 LMM       0.527000
     35 H11C         2.7120    -4.7010    -0.9310 hc         1 LMM       0.046367
     36 H12C         4.0920    -5.0170     0.1360 hc         1 LMM       0.046367
     37 H13C         2.4820    -4.7460     0.8270 hc         1 LMM       0.046367
     38 H3           5.6400    -2.8910     0.3910 h4         1 LMM       0.216000
     39 H11          3.4690     1.8020     0.3120 hn         1 LMM       0.521000
     40 H13         -0.2480     2.7270    -0.5180 h4         1 LMM       0.182000
     41 H15          2.1780     6.0390     0.6430 h5         1 LMM       0.055100
     42 H171        -1.2020     5.1790    -0.9320 h1         1 LMM       0.054367
     43 H172        -1.0610     5.6980     0.7740 h1         1 LMM       0.054367
     44 H173        -0.1550     6.5630    -0.5040 h1         1 LMM       0.054367
@<TRIPOS>BOND
     1     1     2 1   
     2     2     3 ar  
     3     2     7 ar  
     4     3     4 ar  
     5     3    28 1   
     6     4     5 ar  
     7     5     6 ar  
     8     5     8 1   
     9     6     7 ar  
    10     7    29 1   
    11     8     9 1   
    12     8    10 1   
    13     8    30 1   
    14     9    31 1   
    15     9    32 1   
    16     9    33 1   
    17    10    11 1   
    18    10    34 1   
    19    11    12 ar  
    20    11    16 ar  
    21    12    13 ar  
    22    13    14 1   
    23    13    18 ar  
    24    14    15 1   
    25    14    20 2   
    26    15    35 1   
    27    15    36 1   
    28    15    37 1   
    29    16    17 ar  
    30    17    18 ar  
    31    17    21 1   
    32    18    19 1   
    33    19    20 1   
    34    20    38 1   
    35    21    22 1   
    36    21    39 1   
    37    22    23 1   
    38    22    27 2   
    39    23    24 2   
    40    24    25 1   
    41    24    41 1   
    42    25    26 1   
    43    25    27 1   
    44    26    42 1   
    45    26    43 1   
    46    26    44 1   
    47    27    40 1   
@<TRIPOS>SUBSTRUCTURE
     1 LMM         1 TEMP              0 ****  ****    0 ROOT
