@<TRIPOS>MOLECULE
LMN
  157   160     1     0     0
SMALL
No Charge or Current Charge


@<TRIPOS>ATOM
      1 C1          -3.4340     1.3840     0.2620 c6         1 LMN       0.361800
      2 O1          -2.2630     0.8950     0.9340 os         1 LMN      -0.453000
      3 C2          -4.4600     1.9260     1.3080 c6         1 LMN       0.119300
      4 O2          -3.9110     2.9770     2.1370 oh         1 LMN      -0.711500
      5 C3          -5.7140     2.4310     0.5470 c6         1 LMN       0.164800
      6 O3          -6.6540     2.9880     1.4860 oh         1 LMN      -0.718000
      7 C4          -6.3100     1.2670    -0.3140 c6         1 LMN       0.157300
      8 O4          -7.4750     1.6880    -1.0670 os         1 LMN      -0.501000
      9 C5          -5.2000     0.7200    -1.2630 c6         1 LMN       0.161800
     10 O5          -4.0400     0.3130    -0.4870 os         1 LMN      -0.464500
     11 C6          -5.6950    -0.5030    -2.1030 c3         1 LMN       0.163100
     12 O6          -4.6770    -1.0510    -2.9690 oh         1 LMN      -0.717000
     13 CAA          5.2100    11.7210     2.4730 c3         1 LMN      -0.088100
     14 CAB         -5.0860   -11.8880     2.4450 c3         1 LMN      -0.088100
     15 OAN          6.7020    -2.9160     1.1760 oh         1 LMN      -0.718000
     16 OAP          4.7450    -1.1720     2.0650 oh         1 LMN      -0.711500
     17 OAQ        -11.1830     2.4580    -3.7420 oh         1 LMN      -0.719500
     18 OAR         10.9670    -2.5020    -4.2640 oh         1 LMN      -0.719500
     19 OAS        -10.6460     4.5870    -1.9110 oh         1 LMN      -0.667500
     20 OAT         10.4760    -4.6040    -2.3890 oh         1 LMN      -0.667500
     21 OAU         -8.6240     4.1490     0.0810 oh         1 LMN      -0.724500
     22 OAV          8.5460    -4.1280    -0.3270 oh         1 LMN      -0.724500
     23 CAW          4.6700    10.4510     3.1570 c3         1 LMN      -0.074900
     24 CAX         -4.5080   -10.6360     3.1320 c3         1 LMN      -0.074900
     25 CAY          4.1750     9.3860     2.1540 c3         1 LMN      -0.075400
     26 CAZ         -4.0790    -9.5400     2.1320 c3         1 LMN      -0.075400
     27 CBA          3.6330     8.1130     2.8410 c3         1 LMN      -0.074900
     28 CBB         -3.4990    -8.2850     2.8210 c3         1 LMN      -0.074900
     29 CBC          3.1390     7.0490     1.8370 c3         1 LMN      -0.073900
     30 CBD         -3.0710    -7.1900     1.8200 c3         1 LMN      -0.073900
     31 CBE          2.5970     5.7760     2.5240 c3         1 LMN      -0.074900
     32 CBF         -2.4900    -5.9350     2.5090 c3         1 LMN      -0.074900
     33 CBG          2.1020     4.7120     1.5200 c3         1 LMN      -0.075400
     34 CBH         -2.0620    -4.8400     1.5090 c3         1 LMN      -0.075400
     35 CBK          1.0670     2.3750     1.2030 c3         1 LMN      -0.075900
     36 CBL         -1.0520    -2.4910     1.1970 c3         1 LMN      -0.075900
     37 CBM        -10.8010    -0.4020    -2.7400 c3         1 LMN       0.169600
     38 CBN         10.6600     0.3730    -3.2820 c3         1 LMN       0.169600
     39 CBP          5.4910     0.4900    -2.3840 c3         1 LMN       0.163100
     40 CBS         -1.1850     0.4540     0.0880 c3         1 LMN       0.170100
     41 OBV          2.2480    -1.0080     0.7640 os         1 LMN      -0.453000
     42 OBX          3.9330    -0.3970    -0.7160 os         1 LMN      -0.464500
     43 OBY         -9.5600     0.6290    -0.8960 os         1 LMN      -0.455500
     44 OBZ          9.4770    -0.6210    -1.3800 os         1 LMN      -0.455500
     45 OCB          7.3730    -1.6520    -1.4560 os         1 LMN      -0.501000
     46 CCC         -9.9720     0.8410    -2.2760 c6         1 LMN       0.168800
     47 CCD          9.8340    -0.8540    -2.7720 c6         1 LMN       0.168800
     48 CCF          5.0680    -0.7590    -1.5440 c6         1 LMN       0.161800
     49 CCH          5.7140    -2.4780     0.2250 c6         1 LMN       0.164800
     50 CCJ          3.3640    -1.5040     0.0090 c6         1 LMN       0.361800
     51 CCL          4.4210    -2.0980     0.9990 c6         1 LMN       0.119300
     52 CCM         -0.0010    -0.0540     0.9710 c3         1 LMN      -0.049000
     53 CCN        -10.7820     2.1720    -2.3900 c6         1 LMN       0.151300
     54 CCO         10.6220    -2.1960    -2.9010 c6         1 LMN       0.151300
     55 CCQ          6.2260    -1.2810    -0.6470 c6         1 LMN       0.157300
     56 CCR         -8.7270     1.6710    -0.3470 c6         1 LMN       0.365300
     57 CCS          8.6530    -1.6460    -0.7870 c6         1 LMN       0.365300
     58 CCT         -9.9160     3.3480    -1.8540 c6         1 LMN       0.105800
     59 CCU          9.7640    -3.3550    -2.3190 c6         1 LMN       0.105800
     60 CCV         -9.4540     3.0600    -0.3980 c6         1 LMN       0.117300
     61 CCW          9.3620    -3.0470    -0.8490 c6         1 LMN       0.117300
     62 H1          -3.1430     2.1950    -0.4240 h2         1 LMN       0.031200
     63 H4          -6.6020     0.4420     0.3540 h1         1 LMN       0.074700
     64 H5          -4.8980     1.5140    -1.9620 h1         1 LMN       0.057700
     65 H2          -4.7590     1.0780     1.9420 h1         1 LMN       0.056700
     66 HO2         -3.0140     2.6660     2.4120 ho         1 LMN       0.527000
     67 H3          -5.3880     3.2220    -0.1450 h1         1 LMN       0.048700
     68 HO3         -6.0760     3.3220     2.2190 ho         1 LMN       0.521000
     69 H6          -6.0520    -1.2730    -1.4050 h1         1 LMN       0.047200
     70 H6A         -6.5600    -0.1810    -2.6990 h1         1 LMN       0.047200
     71 HBP          6.3430     0.2050    -3.0170 h1         1 LMN       0.047200
     72 HBPA         5.8500     1.2610    -1.6890 h1         1 LMN       0.047200
     73 HBS         -1.5210    -0.3530    -0.5760 h1         1 LMN       0.043200
     74 HBSA        -0.8460     1.2740    -0.5580 h1         1 LMN       0.043200
     75 HOAJ        10.6000     2.3390    -3.4090 ho         1 LMN       0.505000
     76 HO6         -5.0640    -1.8470    -3.4020 ho         1 LMN       0.508500
     77 HOAL         4.7690     1.8320    -3.6380 ho         1 LMN       0.508500
     78 HOAN         6.4350    -2.4460     2.0090 ho         1 LMN       0.521000
     79 HOAP         3.9440    -0.6000     2.1510 ho         1 LMN       0.527000
     80 HOAQ       -11.3580     3.4310    -3.7440 ho         1 LMN       0.525000
     81 HOAR        11.1300    -3.4780    -4.2610 ho         1 LMN       0.525000
     82 HOAS       -10.1690     5.1850    -1.2870 ho         1 LMN       0.463000
     83 HOAT        10.0190    -5.1870    -1.7380 ho         1 LMN       0.463000
     84 HOAU        -7.8690     3.7250     0.5880 ho         1 LMN       0.535500
     85 HOAV         7.8330    -3.7020     0.2380 ho         1 LMN       0.535500
     86 HAX         -5.2590   -10.2270     3.8190 hc         1 LMN       0.036450
     87 HAXA        -3.6440   -10.9300     3.7410 hc         1 LMN       0.036450
     88 HAY          3.3860     9.8220     1.5280 hc         1 LMN       0.036450
     89 HAYA         5.0000     9.1120     1.4850 hc         1 LMN       0.036450
     90 HAZ         -3.3300    -9.9530     1.4450 hc         1 LMN       0.036450
     91 HAZA        -4.9450    -9.2490     1.5240 hc         1 LMN       0.036450
     92 HAA          6.0590    11.4800     1.8210 hc         1 LMN       0.031033
     93 HAAA         4.4310    12.1960     1.8650 hc         1 LMN       0.031033
     94 HAAB         5.5490    12.4450     3.2230 hc         1 LMN       0.031033
     95 HAB         -5.9750   -11.6310     1.8550 hc         1 LMN       0.031033
     96 HABA        -4.3450   -12.3410     1.7760 hc         1 LMN       0.031033
     97 HABB        -5.3750   -12.6350     3.1940 hc         1 LMN       0.031033
     98 HAW          5.4610    10.0200     3.7840 hc         1 LMN       0.036450
     99 HAWA         3.8470    10.7300     3.8270 hc         1 LMN       0.036450
    100 HBN         10.9010     0.2080    -4.3410 h1         1 LMN       0.037700
    101 HBNA        11.6110     0.3940    -2.7330 h1         1 LMN       0.037700
    102 HBA          4.4230     7.6790     3.4670 hc         1 LMN       0.037200
    103 HBAA         2.8090     8.3880     3.5100 hc         1 LMN       0.037200
    104 HBB         -4.2490    -7.8720     3.5080 hc         1 LMN       0.037200
    105 HBBA        -2.6330    -8.5760     3.4290 hc         1 LMN       0.037200
    106 HBC          2.3490     7.4840     1.2110 hc         1 LMN       0.035950
    107 HBCA         3.9630     6.7740     1.1680 hc         1 LMN       0.035950
    108 HBD         -2.3210    -7.6030     1.1340 hc         1 LMN       0.035950
    109 HBDA        -3.9370    -6.8990     1.2120 hc         1 LMN       0.035950
    110 HBE          3.3860     5.3410     3.1500 hc         1 LMN       0.036700
    111 HBEA         1.7720     6.0510     3.1930 hc         1 LMN       0.036700
    112 HBF         -3.2400    -5.5220     3.1960 hc         1 LMN       0.036700
    113 HBFA        -1.6250    -6.2270     3.1170 hc         1 LMN       0.036700
    114 HBG          1.3130     5.1470     0.8940 hc         1 LMN       0.037700
    115 HBGA         2.9270     4.4370     0.8510 hc         1 LMN       0.037700
    116 HBH         -1.3120    -5.2530     0.8220 hc         1 LMN       0.037700
    117 HBHA        -2.9270    -4.5480     0.9010 hc         1 LMN       0.037700
    118 HBI          2.3500     3.0050     2.8330 hc         1 LMN       0.036450
    119 HBIA         0.7360     3.7140     2.8760 hc         1 LMN       0.036450
    120 HBJ         -2.2310    -3.1730     2.8850 hc         1 LMN       0.036450
    121 HBJA        -0.6150    -3.8780     2.8060 hc         1 LMN       0.036450
    122 HBK          0.2820     2.8200     0.5820 hc         1 LMN       0.042450
    123 HBKA         1.8990     2.1130     0.5390 hc         1 LMN       0.042450
    124 HBL         -0.3070    -2.9160     0.5150 hc         1 LMN       0.042450
    125 HBLA        -1.9240    -2.2110     0.5940 hc         1 LMN       0.042450
    126 HBM        -11.0850    -0.2530    -3.7900 h1         1 LMN       0.037700
    127 HBMA       -11.7300    -0.4290    -2.1540 h1         1 LMN       0.037700
    128 HCC         -9.0780     0.9060    -2.9120 h1         1 LMN       0.075700
    129 HCD          8.9150    -0.9150    -3.3720 h1         1 LMN       0.075700
    130 HCF          4.7620    -1.5530    -2.2410 h1         1 LMN       0.057700
    131 HCH          5.4680    -3.3060    -0.4570 h1         1 LMN       0.048700
    132 HCJ          3.0260    -2.2810    -0.6940 h2         1 LMN       0.031200
    133 HCL          3.9920    -3.0170     1.4260 h1         1 LMN       0.056700
    134 HCQ          6.5180    -0.4540     0.0180 h1         1 LMN       0.074700
    135 HCR         -8.5410     1.4330     0.7130 h2         1 LMN       0.086200
    136 HCS          8.5140    -1.3900     0.2750 h2         1 LMN       0.086200
    137 HCN        -11.6750     2.0830    -1.7530 h1         1 LMN       0.049700
    138 HCO         11.5400    -2.1110    -2.3000 h1         1 LMN       0.049700
    139 HCT         -9.0150     3.4230    -2.4830 h1         1 LMN       0.056200
    140 HCU          8.8390    -3.4260    -2.9110 h1         1 LMN       0.056200
    141 HCV        -10.3510     2.9720     0.2350 h1         1 LMN       0.089700
    142 HCW         10.2840    -2.9600    -0.2530 h1         1 LMN       0.089700
    143 OAI        -10.0910    -1.6510    -2.5980 oh         1 LMN      -0.720500
    144 CBQ          0.5280     1.0970     1.9020 c3         1 LMN      -0.062400
    145 CBR         -0.4720    -1.2330     1.8990 c3         1 LMN      -0.062400
    146 CBT          1.1240    -0.5350     0.0000 c3         1 LMN       0.170100
    147 OAL          4.4240     1.0170    -3.2030 oh         1 LMN      -0.717000
    148 CBI          1.5610     3.4390     2.2070 c3         1 LMN      -0.072400
    149 CBJ         -1.4810    -3.5860     2.1980 c3         1 LMN      -0.072400
    150 HBQ          1.3250     0.7000     2.5420 hc         1 LMN       0.045200
    151 OAJ          9.9720     1.6330    -3.1270 oh         1 LMN      -0.720500
    152 HBQA        -0.2730     1.3980     2.5880 hc         1 LMN       0.045200
    153 HBR         -1.2280    -0.8570     2.5980 hc         1 LMN       0.045200
    154 HBRA         0.3710    -1.5530     2.5250 hc         1 LMN       0.045200
    155 HBT          1.4230     0.2910    -0.6570 h1         1 LMN       0.043200
    156 HBTA         0.7410    -1.3320    -0.6490 h1         1 LMN       0.043200
    157 HOAI       -10.7190    -2.3690    -2.8460 ho         1 LMN       0.505000
@<TRIPOS>BOND
     1     1     2 1   
     2     1     3 1   
     3     1    10 1   
     4     1    62 1   
     5     2    40 1   
     6     3     4 1   
     7     3     5 1   
     8     3    65 1   
     9     4    66 1   
    10     5     6 1   
    11     5     7 1   
    12     5    67 1   
    13     6    68 1   
    14     7     8 1   
    15     7     9 1   
    16     7    63 1   
    17     8    56 1   
    18     9    10 1   
    19     9    11 1   
    20     9    64 1   
    21    11    12 1   
    22    11    69 1   
    23    11    70 1   
    24    12    76 1   
    25    13    23 1   
    26    13    92 1   
    27    13    93 1   
    28    13    94 1   
    29    14    24 1   
    30    14    95 1   
    31    14    96 1   
    32    14    97 1   
    33    15    49 1   
    34    15    78 1   
    35    16    51 1   
    36    16    79 1   
    37    17    53 1   
    38    17    80 1   
    39    18    54 1   
    40    18    81 1   
    41    19    58 1   
    42    19    82 1   
    43    20    59 1   
    44    20    83 1   
    45    21    60 1   
    46    21    84 1   
    47    22    61 1   
    48    22    85 1   
    49    23    25 1   
    50    23    98 1   
    51    23    99 1   
    52    24    26 1   
    53    24    86 1   
    54    24    87 1   
    55    25    27 1   
    56    25    88 1   
    57    25    89 1   
    58    26    28 1   
    59    26    90 1   
    60    26    91 1   
    61    27    29 1   
    62    27   102 1   
    63    27   103 1   
    64    28    30 1   
    65    28   104 1   
    66    28   105 1   
    67    29    31 1   
    68    29   106 1   
    69    29   107 1   
    70    30    32 1   
    71    30   108 1   
    72    30   109 1   
    73    31    33 1   
    74    31   110 1   
    75    31   111 1   
    76    32    34 1   
    77    32   112 1   
    78    32   113 1   
    79    33   114 1   
    80    33   115 1   
    81    33   148 1   
    82    34   116 1   
    83    34   117 1   
    84    34   149 1   
    85    35   122 1   
    86    35   123 1   
    87    35   144 1   
    88    35   148 1   
    89    36   124 1   
    90    36   125 1   
    91    36   145 1   
    92    36   149 1   
    93    37    46 1   
    94    37   126 1   
    95    37   127 1   
    96    37   143 1   
    97    38    47 1   
    98    38   100 1   
    99    38   101 1   
   100    38   151 1   
   101    39    48 1   
   102    39    71 1   
   103    39    72 1   
   104    39   147 1   
   105    40    52 1   
   106    40    73 1   
   107    40    74 1   
   108    41    50 1   
   109    41   146 1   
   110    42    48 1   
   111    42    50 1   
   112    43    46 1   
   113    43    56 1   
   114    44    47 1   
   115    44    57 1   
   116    45    55 1   
   117    45    57 1   
   118    46    53 1   
   119    46   128 1   
   120    47    54 1   
   121    47   129 1   
   122    48    55 1   
   123    48   130 1   
   124    49    51 1   
   125    49    55 1   
   126    49   131 1   
   127    50    51 1   
   128    50   132 1   
   129    51   133 1   
   130    52   144 1   
   131    52   145 1   
   132    52   146 1   
   133    53    58 1   
   134    53   137 1   
   135    54    59 1   
   136    54   138 1   
   137    55   134 1   
   138    56    60 1   
   139    56   135 1   
   140    57    61 1   
   141    57   136 1   
   142    58    60 1   
   143    58   139 1   
   144    59    61 1   
   145    59   140 1   
   146    60   141 1   
   147    61   142 1   
   148    75   151 1   
   149    77   147 1   
   150   118   148 1   
   151   119   148 1   
   152   120   149 1   
   153   121   149 1   
   154   143   157 1   
   155   144   150 1   
   156   144   152 1   
   157   145   153 1   
   158   145   154 1   
   159   146   155 1   
   160   146   156 1   
@<TRIPOS>SUBSTRUCTURE
     1 LMN         1 TEMP              0 ****  ****    0 ROOT
