@<TRIPOS>MOLECULE
LMN
  157   160     1     0     0
SMALL
abcg2


@<TRIPOS>ATOM
      1 C1          -3.4230     0.6420     0.3000 c6         1 LMN       0.361800
      2 O1          -2.6740    -0.3360     0.9070 os         1 LMN      -0.453000
      3 C2          -3.9010     1.6260     1.3630 c6         1 LMN       0.119300
      4 O2          -2.8280     2.2930     1.9770 oh         1 LMN      -0.711500
      5 C3          -4.7610     2.6810     0.6820 c6         1 LMN       0.164800
      6 O3          -5.3510     3.5590     1.6130 oh         1 LMN      -0.718000
      7 C4          -5.8800     2.0340    -0.1270 c6         1 LMN       0.157300
      8 O4          -6.5120     3.0660    -0.8490 os         1 LMN      -0.501000
      9 C5          -5.2990     0.9710    -1.0740 c6         1 LMN       0.161800
     10 O5          -4.5310     0.0510    -0.3260 os         1 LMN      -0.464500
     11 C6          -6.3760     0.1920    -1.7960 c3         1 LMN       0.163100
     12 O6          -5.7600    -0.7220    -2.6730 oh         1 LMN      -0.717000
     13 CAA          4.6400    10.2470     0.5280 c3         1 LMN      -0.088100
     14 CAB         -3.5450   -13.4540     3.8980 c3         1 LMN      -0.088100
     15 OAN          6.2950    -3.3570     0.7060 oh         1 LMN      -0.718000
     16 OAP          3.8900    -2.7250     1.9720 oh         1 LMN      -0.711500
     17 OAQ         -7.9280     5.8640    -3.9810 oh         1 LMN      -0.719500
     18 OAR          9.6760     0.2270    -3.7410 oh         1 LMN      -0.719500
     19 OAS         -8.1740     6.9210    -1.3480 oh         1 LMN      -0.667500
     20 OAT         10.6820    -1.6950    -1.9040 oh         1 LMN      -0.667500
     21 OAU         -7.6980     5.0560     0.8040 oh         1 LMN      -0.724500
     22 OAV          8.9770    -2.2860     0.3540 oh         1 LMN      -0.724500
     23 CAW          4.3980     8.9910     1.3540 c3         1 LMN      -0.074900
     24 CAX         -3.0350   -12.1080     4.3950 c3         1 LMN      -0.074900
     25 CAY          3.5700     7.9480     0.6130 c3         1 LMN      -0.075400
     26 CAZ         -3.0690   -11.0270     3.3210 c3         1 LMN      -0.075400
     27 CBA          3.3170     6.6850     1.4270 c3         1 LMN      -0.074900
     28 CBB         -2.5610    -9.6760     3.8070 c3         1 LMN      -0.074900
     29 CBC          2.4900     5.6470     0.6800 c3         1 LMN      -0.073900
     30 CBD         -2.5850    -8.6000     2.7280 c3         1 LMN      -0.073900
     31 CBE          2.2320     4.3810     1.4880 c3         1 LMN      -0.074900
     32 CBF         -2.0700    -7.2490     3.2090 c3         1 LMN      -0.074900
     33 CBG          1.4090     3.3470     0.7320 c3         1 LMN      -0.075400
     34 CBH         -2.0600    -6.1870     2.1170 c3         1 LMN      -0.075400
     35 CBK          0.3750     1.0260     0.7390 c3         1 LMN      -0.075900
     36 CBL         -1.4210    -3.8160     1.4600 c3         1 LMN      -0.075900
     37 CBM         -8.8380     3.1100    -4.3290 c3         1 LMN       0.169600
     38 CBN          8.1740     2.4400    -2.5520 c3         1 LMN       0.169600
     39 CBP          4.3760     0.9320    -0.7630 c3         1 LMN       0.163100
     40 CBS         -1.7620    -1.0280     0.0730 c3         1 LMN       0.170100
     41 OBV          1.6040    -2.5230     0.4720 os         1 LMN      -0.453000
     42 OBX          3.0880    -0.9400    -0.1330 os         1 LMN      -0.464500
     43 OBY         -8.5000     2.8790    -2.0050 os         1 LMN      -0.455500
     44 OBZ          7.8010     0.9860    -0.7330 os         1 LMN      -0.455500
     45 OCB          6.6800    -1.0350    -0.7250 os         1 LMN      -0.501000
     46 CCC         -8.1010     3.6570    -3.1250 c6         1 LMN       0.168800
     47 CCD          8.1210     0.9910    -2.1170 c6         1 LMN       0.168800
     48 CCF          4.2980    -0.5800    -0.7590 c6         1 LMN       0.161800
     49 CCH          5.2320    -2.7550     0.0060 c6         1 LMN       0.164800
     50 CCJ          2.8110    -2.3140    -0.1600 c6         1 LMN       0.361800
     51 CCL          3.8760    -3.0850     0.6170 c6         1 LMN       0.119300
     52 CCM         -0.5200    -1.4330     0.8680 c3         1 LMN      -0.049000
     53 CCN         -8.4150     5.1340    -2.8810 c6         1 LMN       0.151300
     54 CCO          9.4500     0.2720    -2.3530 c6         1 LMN       0.151300
     55 CCQ          5.4720    -1.2480    -0.0270 c6         1 LMN       0.157300
     56 CCR         -7.9020     3.2160    -0.7920 c6         1 LMN       0.365300
     57 CCS          7.6930    -0.2690    -0.1370 c6         1 LMN       0.365300
     58 CCT         -7.7760     5.5880    -1.5730 c6         1 LMN       0.105800
     59 CCU          9.4040    -1.1230    -1.7420 c6         1 LMN       0.105800
     60 CCV         -8.2220     4.6690    -0.4380 c6         1 LMN       0.117300
     61 CCW          9.0120    -1.0300    -0.2700 c6         1 LMN       0.117300
     62 H1          -2.8200     1.1860    -0.4520 h2         1 LMN       0.031200
     63 H4          -6.5880     1.5460     0.5590 h1         1 LMN       0.074700
     64 H5          -4.6630     1.4770    -1.8180 h1         1 LMN       0.057700
     65 H2          -4.5120     1.0780     2.0970 h1         1 LMN       0.056700
     66 HO2         -2.3160     1.6530     2.4820 ho         1 LMN       0.527000
     67 H3          -4.1210     3.2390    -0.0190 h1         1 LMN       0.048700
     68 HO3         -4.6580     4.0800     2.0320 ho         1 LMN       0.521000
     69 H6          -7.0070    -0.3160    -1.0530 h1         1 LMN       0.047200
     70 H6A         -7.0150     0.8930    -2.3380 h1         1 LMN       0.047200
     71 HBP          5.3830     1.2440    -1.0420 h1         1 LMN       0.047200
     72 HBPA         4.1890     1.2990     0.2550 h1         1 LMN       0.047200
     73 HBS         -2.2450    -1.9120    -0.3580 h1         1 LMN       0.043200
     74 HBSA        -1.4670    -0.3910    -0.7710 h1         1 LMN       0.043200
     75 HOAJ         6.9230     3.9040    -2.7470 ho         1 LMN       0.505000
     76 HO6         -6.4410    -1.0900    -3.2410 ho         1 LMN       0.508500
     77 HOAL         3.6280     2.3520    -1.8490 ho         1 LMN       0.508500
     78 HOAN         6.2720    -4.3080     0.5520 ho         1 LMN       0.521000
     79 HOAP         2.9860    -2.7710     2.3030 ho         1 LMN       0.527000
     80 HOAQ        -8.1100     6.7960    -3.8270 ho         1 LMN       0.525000
     81 HOAR        10.4930    -0.2590    -3.8940 ho         1 LMN       0.525000
     82 HOAS        -7.7070     7.2460    -0.5710 ho         1 LMN       0.463000
     83 HOAT        10.6390    -2.6120    -1.6140 ho         1 LMN       0.463000
     84 HOAU        -6.8030     4.6960     0.9160 ho         1 LMN       0.535500
     85 HOAV         8.0980    -2.6810     0.2430 ho         1 LMN       0.535500
     86 HAX         -3.6300   -11.7840     5.2540 hc         1 LMN       0.036450
     87 HAXA        -2.0100   -12.2200     4.7630 hc         1 LMN       0.036450
     88 HAY          2.6100     8.3900     0.3210 hc         1 LMN       0.036450
     89 HAYA         4.0760     7.6830    -0.3220 hc         1 LMN       0.036450
     90 HAZ         -2.4730   -11.3520     2.4610 hc         1 LMN       0.036450
     91 HAZA        -4.0950   -10.9180     2.9520 hc         1 LMN       0.036450
     92 HAA          5.1740    10.0130    -0.3960 hc         1 LMN       0.031033
     93 HAAA         3.6980    10.7230     0.2500 hc         1 LMN       0.031033
     94 HAAB         5.2330    10.9810     1.0740 hc         1 LMN       0.031033
     95 HAB         -4.5810   -13.3850     3.5610 hc         1 LMN       0.031033
     96 HABA        -2.9500   -13.8130     3.0560 hc         1 LMN       0.031033
     97 HABB        -3.5020   -14.2140     4.6790 hc         1 LMN       0.031033
     98 HAW          5.3570     8.5510     1.6440 hc         1 LMN       0.036450
     99 HAWA         3.8930     9.2560     2.2880 hc         1 LMN       0.036450
    100 HBN          8.5310     2.4800    -3.5860 h1         1 LMN       0.037700
    101 HBNA         8.9120     2.9700    -1.9340 h1         1 LMN       0.037700
    102 HBA          4.2770     6.2430     1.7190 hc         1 LMN       0.037200
    103 HBAA         2.8100     6.9500     2.3610 hc         1 LMN       0.037200
    104 HBB         -3.1610    -9.3480     4.6630 hc         1 LMN       0.037200
    105 HBBA        -1.5370    -9.7870     4.1810 hc         1 LMN       0.037200
    106 HBC          1.5320     6.0900     0.3840 hc         1 LMN       0.035950
    107 HBCA         2.9990     5.3820    -0.2530 hc         1 LMN       0.035950
    108 HBD         -1.9860    -8.9310     1.8730 hc         1 LMN       0.035950
    109 HBDA        -3.6080    -8.4860     2.3530 hc         1 LMN       0.035950
    110 HBE          3.1890     3.9370     1.7820 hc         1 LMN       0.036700
    111 HBEA         1.7210     4.6430     2.4220 hc         1 LMN       0.036700
    112 HBF         -2.6820    -6.9050     4.0510 hc         1 LMN       0.036700
    113 HBFA        -1.0550    -7.3690     3.6030 hc         1 LMN       0.036700
    114 HBG          0.4510     3.7890     0.4350 hc         1 LMN       0.037700
    115 HBGA         1.9230     3.0850    -0.1980 hc         1 LMN       0.037700
    116 HBH         -1.4510    -6.5400     1.2780 hc         1 LMN       0.037700
    117 HBHA        -3.0740    -6.0600     1.7220 hc         1 LMN       0.037700
    118 HBI          2.1110     1.6420     1.8370 hc         1 LMN       0.036450
    119 HBIA         0.6150     2.3210     2.4480 hc         1 LMN       0.036450
    120 HBJ         -2.1690    -4.4480     3.3840 hc         1 LMN       0.036450
    121 HBJA        -0.5370    -4.9760     3.0350 hc         1 LMN       0.036450
    122 HBK         -0.5650     1.4720     0.4000 hc         1 LMN       0.042450
    123 HBKA         0.9460     0.7760    -0.1570 hc         1 LMN       0.042450
    124 HBL         -0.7840    -4.2370     0.6770 hc         1 LMN       0.042450
    125 HBLA        -2.4080    -3.6790     1.0070 hc         1 LMN       0.042450
    126 HBM         -8.6310     3.7590    -5.1860 h1         1 LMN       0.037700
    127 HBMA        -9.9200     3.1610    -4.1390 h1         1 LMN       0.037700
    128 HCC         -7.0210     3.5510    -3.2970 h1         1 LMN       0.075700
    129 HCD          7.3350     0.4820    -2.6930 h1         1 LMN       0.075700
    130 HCF          4.3140    -0.9300    -1.8050 h1         1 LMN       0.057700
    131 HCH          5.2100    -3.1050    -1.0360 h1         1 LMN       0.048700
    132 HCJ          2.7900    -2.6710    -1.2060 h2         1 LMN       0.031200
    133 HCL          3.6810    -4.1610     0.4870 h1         1 LMN       0.056700
    134 HCQ          5.5410    -0.8550     0.9960 h1         1 LMN       0.074700
    135 HCR         -8.3330     2.5430    -0.0420 h2         1 LMN       0.086200
    136 HCS          7.4680    -0.0800     0.9190 h2         1 LMN       0.086200
    137 HCN         -9.5070     5.2470    -2.7830 h1         1 LMN       0.049700
    138 HCO         10.2460     0.8410    -1.8440 h1         1 LMN       0.049700
    139 HCT         -6.6830     5.5260    -1.6840 h1         1 LMN       0.056200
    140 HCU          8.6490    -1.7150    -2.2820 h1         1 LMN       0.056200
    141 HCV         -9.3120     4.7450    -0.3510 h1         1 LMN       0.089700
    142 HCW          9.7770    -0.4390     0.2480 h1         1 LMN       0.089700
    143 OAI         -8.4090     1.7890    -4.5610 oh         1 LMN      -0.720500
    144 CBQ          0.1110    -0.2210     1.5770 c3         1 LMN      -0.062400
    145 CBR         -0.8630    -2.4810     1.9440 c3         1 LMN      -0.062400
    146 CBT          0.4540    -2.0020    -0.1710 c3         1 LMN       0.170100
    147 OAL          3.4240     1.4280    -1.6800 oh         1 LMN      -0.717000
    148 CBI          1.1540     2.0740     1.5260 c3         1 LMN      -0.072400
    149 CBJ         -1.5280    -4.8380     2.5860 c3         1 LMN      -0.072400
    150 HBQ          1.0580    -0.5470     2.0160 hc         1 LMN       0.045200
    151 OAJ          6.8870     2.9980    -2.4270 oh         1 LMN      -0.720500
    152 HBQA        -0.5190     0.0540     2.4290 hc         1 LMN       0.045200
    153 HBR         -1.5730    -2.0320     2.6450 hc         1 LMN       0.045200
    154 HBRA         0.0420    -2.6730     2.5300 hc         1 LMN       0.045200
    155 HBT          0.7210    -1.2140    -0.8800 h1         1 LMN       0.043200
    156 HBTA        -0.0230    -2.8000    -0.7510 h1         1 LMN       0.043200
    157 HOAI        -8.8800     1.4550    -5.3300 ho         1 LMN       0.505000
@<TRIPOS>BOND
     1     1     2 1   
     2     1     3 1   
     3     1    10 1   
     4     1    62 1   
     5     2    40 1   
     6     3     4 1   
     7     3     5 1   
     8     3    65 1   
     9     4    66 1   
    10     5     6 1   
    11     5     7 1   
    12     5    67 1   
    13     6    68 1   
    14     7     8 1   
    15     7     9 1   
    16     7    63 1   
    17     8    56 1   
    18     9    10 1   
    19     9    11 1   
    20     9    64 1   
    21    11    12 1   
    22    11    69 1   
    23    11    70 1   
    24    12    76 1   
    25    13    23 1   
    26    13    92 1   
    27    13    93 1   
    28    13    94 1   
    29    14    24 1   
    30    14    95 1   
    31    14    96 1   
    32    14    97 1   
    33    15    49 1   
    34    15    78 1   
    35    16    51 1   
    36    16    79 1   
    37    17    53 1   
    38    17    80 1   
    39    18    54 1   
    40    18    81 1   
    41    19    58 1   
    42    19    82 1   
    43    20    59 1   
    44    20    83 1   
    45    21    60 1   
    46    21    84 1   
    47    22    61 1   
    48    22    85 1   
    49    23    25 1   
    50    23    98 1   
    51    23    99 1   
    52    24    26 1   
    53    24    86 1   
    54    24    87 1   
    55    25    27 1   
    56    25    88 1   
    57    25    89 1   
    58    26    28 1   
    59    26    90 1   
    60    26    91 1   
    61    27    29 1   
    62    27   102 1   
    63    27   103 1   
    64    28    30 1   
    65    28   104 1   
    66    28   105 1   
    67    29    31 1   
    68    29   106 1   
    69    29   107 1   
    70    30    32 1   
    71    30   108 1   
    72    30   109 1   
    73    31    33 1   
    74    31   110 1   
    75    31   111 1   
    76    32    34 1   
    77    32   112 1   
    78    32   113 1   
    79    33   114 1   
    80    33   115 1   
    81    33   148 1   
    82    34   116 1   
    83    34   117 1   
    84    34   149 1   
    85    35   122 1   
    86    35   123 1   
    87    35   144 1   
    88    35   148 1   
    89    36   124 1   
    90    36   125 1   
    91    36   145 1   
    92    36   149 1   
    93    37    46 1   
    94    37   126 1   
    95    37   127 1   
    96    37   143 1   
    97    38    47 1   
    98    38   100 1   
    99    38   101 1   
   100    38   151 1   
   101    39    48 1   
   102    39    71 1   
   103    39    72 1   
   104    39   147 1   
   105    40    52 1   
   106    40    73 1   
   107    40    74 1   
   108    41    50 1   
   109    41   146 1   
   110    42    48 1   
   111    42    50 1   
   112    43    46 1   
   113    43    56 1   
   114    44    47 1   
   115    44    57 1   
   116    45    55 1   
   117    45    57 1   
   118    46    53 1   
   119    46   128 1   
   120    47    54 1   
   121    47   129 1   
   122    48    55 1   
   123    48   130 1   
   124    49    51 1   
   125    49    55 1   
   126    49   131 1   
   127    50    51 1   
   128    50   132 1   
   129    51   133 1   
   130    52   144 1   
   131    52   145 1   
   132    52   146 1   
   133    53    58 1   
   134    53   137 1   
   135    54    59 1   
   136    54   138 1   
   137    55   134 1   
   138    56    60 1   
   139    56   135 1   
   140    57    61 1   
   141    57   136 1   
   142    58    60 1   
   143    58   139 1   
   144    59    61 1   
   145    59   140 1   
   146    60   141 1   
   147    61   142 1   
   148    75   151 1   
   149    77   147 1   
   150   118   148 1   
   151   119   148 1   
   152   120   149 1   
   153   121   149 1   
   154   143   157 1   
   155   144   150 1   
   156   144   152 1   
   157   145   153 1   
   158   145   154 1   
   159   146   155 1   
   160   146   156 1   
@<TRIPOS>SUBSTRUCTURE
     1 LMN         1 TEMP              0 ****  ****    0 ROOT
