@<TRIPOS>MOLECULE
LMO
   81    82     1     0     0
SMALL
No Charge or Current Charge


@<TRIPOS>ATOM
      1 C13        -26.5570    46.8670    -5.3260 c3         1 LMO       0.172600
      2 C17        -24.2180    45.1420    -8.0250 c6         1 LMO       0.129300
      3 C24        -27.8010    48.2500   -10.5990 c3         1 LMO      -0.117400
      4 C26        -29.9190    46.7530   -10.3360 c3         1 LMO      -0.074400
      5 C28        -30.4660    44.5580   -11.6290 c3         1 LMO      -0.071400
      6 C14        -26.0190    46.3490    -6.7020 c6         1 LMO       0.127300
      7 C16        -24.6700    45.5640    -6.5960 c6         1 LMO       0.109300
      8 C18        -25.5200    47.1130    -8.9480 c6         1 LMO       0.396300
      9 C19        -24.1310    46.3850    -8.9560 c6         1 LMO       0.155300
     10 C25        -28.8370    47.6100    -9.6380 c3         1 LMO      -0.077400
     11 C27        -29.3820    45.4420   -10.9620 c3         1 LMO      -0.075400
     12 C29        -31.5850    44.0300   -10.6910 c3         1 LMO      -0.072400
     13 C30        -31.1060    43.2120    -9.4630 c3         1 LMO      -0.070400
     14 C31        -30.2520    41.9560    -9.7820 c3         1 LMO      -0.076400
     15 C32        -30.9230    40.8980   -10.6970 c3         1 LMO      -0.070400
     16 C33        -32.2630    40.3160   -10.1820 c3         1 LMO      -0.073400
     17 C34        -32.1600    39.5790    -8.8300 c3         1 LMO      -0.088100
     18 O08        -25.5130    47.4750    -4.5290 os         1 LMO      -0.486000
     19 O15        -25.8620    47.4780    -7.5950 os         1 LMO      -0.485000
     20 O20        -24.7850    44.3980    -5.7510 oh         1 LMO      -0.732000
     21 O21        -23.6980    45.9730   -10.2750 oh         1 LMO      -0.706000
     22 O22        -25.4880    48.3080    -9.7550 os         1 LMO      -0.426000
     23 O35        -22.9540    44.4570    -7.9650 oh         1 LMO      -0.664000
     24 C04        -25.0680    48.8010    -4.9060 c6         1 LMO       0.389300
     25 C03        -23.7790    49.2300    -4.1200 c6         1 LMO       0.159300
     26 C02        -24.1100    49.4250    -2.6080 c6         1 LMO       0.138300
     27 C01        -25.2930    50.4240    -2.4300 c6         1 LMO       0.115300
     28 C06        -26.5060    49.8980    -3.2680 c6         1 LMO       0.138300
     29 C11        -27.7690    50.8170    -3.1730 c3         1 LMO       0.167600
     30 O10        -22.6850    48.2910    -4.2650 oh         1 LMO      -0.706000
     31 O09        -22.9540    49.9120    -1.9030 oh         1 LMO      -0.649000
     32 O07        -24.8600    51.7450    -2.8330 oh         1 LMO      -0.694000
     33 O05        -26.1390    49.7470    -4.6670 os         1 LMO      -0.451000
     34 O12        -28.9040    50.2950    -3.8890 oh         1 LMO      -0.708000
     35 H131       -27.3850    47.5680    -5.5010 h1         1 LMO       0.060700
     36 H132       -26.9740    46.0070    -4.7870 h1         1 LMO       0.060700
     37 H171       -24.9830    44.4630    -8.4320 h1         1 LMO       0.045700
     38 H241       -27.3280    47.4890   -11.2300 hc         1 LMO       0.051700
     39 H242       -28.3400    48.9190   -11.2810 hc         1 LMO       0.051700
     40 H262       -30.4160    47.3520   -11.1090 hc         1 LMO       0.039200
     41 H261       -30.6820    46.5080    -9.5890 hc         1 LMO       0.039200
     42 H281       -30.9350    45.1300   -12.4390 hc         1 LMO       0.037200
     43 H282       -29.9730    43.7050   -12.1110 hc         1 LMO       0.037200
     44 H141       -26.7890    45.6870    -7.1250 h1         1 LMO       0.046700
     45 H161       -23.9080    46.2490    -6.1920 h1         1 LMO       0.086700
     46 H181       -26.2760    46.4220    -9.3480 h2         1 LMO       0.031700
     47 H191       -23.3950    47.0810    -8.5260 h1         1 LMO       0.073700
     48 H232       -26.4960    49.9720   -10.4830 h1         1 LMO       0.050700
     49 H231       -27.0620    49.4240    -8.9020 h1         1 LMO       0.050700
     50 H252       -29.3390    48.4150    -9.0860 hc         1 LMO       0.039200
     51 H251       -28.3340    46.9940    -8.8850 hc         1 LMO       0.039200
     52 H271       -28.8530    44.8610   -10.1970 hc         1 LMO       0.037200
     53 H272       -28.6380    45.6860   -11.7280 hc         1 LMO       0.037200
     54 H291       -32.1830    44.8760   -10.3340 hc         1 LMO       0.035200
     55 H292       -32.2730    43.4150   -11.2830 hc         1 LMO       0.035200
     56 H302       -31.9840    42.9090    -8.8820 hc         1 LMO       0.034200
     57 H301       -30.5280    43.8680    -8.8000 hc         1 LMO       0.034200
     58 H312       -29.9650    41.4810    -8.8360 hc         1 LMO       0.040700
     59 H311       -29.3110    42.2730   -10.2480 hc         1 LMO       0.040700
     60 H322       -31.0880    41.3340   -11.6890 hc         1 LMO       0.035700
     61 H321       -30.2170    40.0720   -10.8460 hc         1 LMO       0.035700
     62 H331       -33.0110    41.1140   -10.1030 hc         1 LMO       0.035200
     63 H332       -32.6440    39.6120   -10.9320 hc         1 LMO       0.035200
     64 H343       -33.1230    39.1230    -8.5720 hc         1 LMO       0.030367
     65 H342       -31.4070    38.7830    -8.8780 hc         1 LMO       0.030367
     66 H341       -31.8870    40.2690    -8.0240 hc         1 LMO       0.030367
     67 H201       -24.8030    44.7210    -4.8180 ho         1 LMO       0.516000
     68 H211       -23.0240    45.2720   -10.1060 ho         1 LMO       0.520000
     69 H351       -23.0200    43.8820    -7.1670 ho         1 LMO       0.460000
     70 H041       -24.8110    48.8150    -5.9750 h2         1 LMO       0.104700
     71 H031       -23.4730    50.2050    -4.5270 h1         1 LMO       0.074700
     72 H021       -24.4160    48.4530    -2.1930 h1         1 LMO       0.053700
     73 H011       -25.5820    50.4330    -1.3680 h1         1 LMO       0.030700
     74 H061       -26.7990    48.9140    -2.8730 h1         1 LMO       0.061700
     75 H111       -28.0230    50.9390    -2.1120 h1         1 LMO       0.024700
     76 H112       -27.5080    51.8100    -3.5640 h1         1 LMO       0.024700
     77 H101       -22.1070    48.4550    -3.4810 ho         1 LMO       0.520000
     78 H091       -23.0330    50.8930    -1.9550 ho         1 LMO       0.445000
     79 H071       -25.5430    52.3880    -2.5330 ho         1 LMO       0.500000
     80 H121       -29.6150    50.9760    -3.8370 ho         1 LMO       0.504000
     81 C23        -26.7030    49.0780    -9.8810 c3         1 LMO       0.165600
@<TRIPOS>BOND
     1     1     6 1   
     2     1    18 1   
     3     1    35 1   
     4     1    36 1   
     5     2     7 1   
     6     2     9 1   
     7     2    23 1   
     8     2    37 1   
     9     3    10 1   
    10     3    38 1   
    11     3    39 1   
    12     3    81 1   
    13     4    10 1   
    14     4    11 1   
    15     4    40 1   
    16     4    41 1   
    17     5    11 1   
    18     5    12 1   
    19     5    42 1   
    20     5    43 1   
    21     6     7 1   
    22     6    19 1   
    23     6    44 1   
    24     7    20 1   
    25     7    45 1   
    26     8     9 1   
    27     8    19 1   
    28     8    22 1   
    29     8    46 1   
    30     9    21 1   
    31     9    47 1   
    32    10    50 1   
    33    10    51 1   
    34    11    52 1   
    35    11    53 1   
    36    12    13 1   
    37    12    54 1   
    38    12    55 1   
    39    13    14 1   
    40    13    56 1   
    41    13    57 1   
    42    14    15 1   
    43    14    58 1   
    44    14    59 1   
    45    15    16 1   
    46    15    60 1   
    47    15    61 1   
    48    16    17 1   
    49    16    62 1   
    50    16    63 1   
    51    17    64 1   
    52    17    65 1   
    53    17    66 1   
    54    18    24 1   
    55    20    67 1   
    56    21    68 1   
    57    22    81 1   
    58    23    69 1   
    59    24    25 1   
    60    24    33 1   
    61    24    70 1   
    62    25    26 1   
    63    25    30 1   
    64    25    71 1   
    65    26    27 1   
    66    26    31 1   
    67    26    72 1   
    68    27    28 1   
    69    27    32 1   
    70    27    73 1   
    71    28    29 1   
    72    28    33 1   
    73    28    74 1   
    74    29    34 1   
    75    29    75 1   
    76    29    76 1   
    77    30    77 1   
    78    31    78 1   
    79    32    79 1   
    80    34    80 1   
    81    48    81 1   
    82    49    81 1   
@<TRIPOS>SUBSTRUCTURE
     1 LMO         1 TEMP              0 ****  ****    0 ROOT
