@<TRIPOS>MOLECULE
LMO
   81    82     1     0     0
SMALL
abcg2


@<TRIPOS>ATOM
      1 C13        -27.4820    47.0070    -6.1800 c3         1 LMO       0.172600
      2 C17        -25.1700    44.7890    -8.3490 c6         1 LMO       0.129300
      3 C24        -27.3340    48.3420   -11.4050 c3         1 LMO      -0.117400
      4 C26        -29.6080    47.1490   -11.2710 c3         1 LMO      -0.074400
      5 C28        -30.1070    44.6390   -11.5800 c3         1 LMO      -0.071400
      6 C14        -26.8370    46.3870    -7.4040 c6         1 LMO       0.127300
      7 C16        -25.8200    45.2910    -7.0660 c6         1 LMO       0.109300
      8 C18        -25.7100    46.9590    -9.3880 c6         1 LMO       0.396300
      9 C19        -24.5910    45.9490    -9.1550 c6         1 LMO       0.155300
     10 C25        -28.6100    48.0870   -10.5990 c3         1 LMO      -0.077400
     11 C27        -29.0520    45.7390   -11.4860 c3         1 LMO      -0.075400
     12 C29        -30.9390    44.4300   -10.3140 c3         1 LMO      -0.072400
     13 C30        -30.1310    44.2460    -9.0310 c3         1 LMO      -0.070400
     14 C31        -29.1120    43.1090    -9.0600 c3         1 LMO      -0.076400
     15 C32        -29.7030    41.7260    -9.3280 c3         1 LMO      -0.070400
     16 C33        -30.7770    41.2800    -8.3370 c3         1 LMO      -0.073400
     17 C34        -30.3000    41.2340    -6.8920 c3         1 LMO      -0.088100
     18 O08        -26.5310    47.3860    -5.2090 os         1 LMO      -0.486000
     19 O15        -26.1980    47.4050    -8.1450 os         1 LMO      -0.485000
     20 O20        -26.4390    44.1880    -6.4430 oh         1 LMO      -0.732000
     21 O21        -24.1150    45.5240   -10.4040 oh         1 LMO      -0.706000
     22 O22        -25.2300    48.0350   -10.0900 os         1 LMO      -0.426000
     23 O35        -24.1170    43.8920    -8.0940 oh         1 LMO      -0.664000
     24 C04        -26.1400    48.7220    -5.1780 c6         1 LMO       0.389300
     25 C03        -24.7160    48.8000    -4.6250 c6         1 LMO       0.159300
     26 C02        -24.7050    48.3890    -3.1570 c6         1 LMO       0.138300
     27 C01        -25.6890    49.2550    -2.3680 c6         1 LMO       0.115300
     28 C06        -27.0650    49.1350    -3.0260 c6         1 LMO       0.138300
     29 C11        -28.1050    50.0110    -2.3610 c3         1 LMO       0.167600
     30 O10        -23.8860    47.9910    -5.4180 oh         1 LMO      -0.706000
     31 O09        -23.3800    48.5010    -2.6960 oh         1 LMO      -0.649000
     32 O07        -25.2090    50.5780    -2.3490 oh         1 LMO      -0.694000
     33 O05        -27.0060    49.4950    -4.3970 os         1 LMO      -0.451000
     34 O12        -29.3750    49.6710    -2.8660 oh         1 LMO      -0.708000
     35 H131       -28.1120    47.8500    -6.4860 h1         1 LMO       0.060700
     36 H132       -28.1450    46.2700    -5.7210 h1         1 LMO       0.060700
     37 H171       -25.9510    44.3100    -8.9640 h1         1 LMO       0.045700
     38 H241       -26.9760    47.4290   -11.8900 hc         1 LMO       0.051700
     39 H242       -27.5760    49.0240   -12.2240 hc         1 LMO       0.051700
     40 H262       -29.9370    47.5650   -12.2290 hc         1 LMO       0.039200
     41 H261       -30.5020    47.1080   -10.6420 hc         1 LMO       0.039200
     42 H281       -30.7840    44.8500   -12.4140 hc         1 LMO       0.037200
     43 H282       -29.6060    43.7010   -11.8410 hc         1 LMO       0.037200
     44 H141       -27.6500    45.9410    -8.0020 h1         1 LMO       0.046700
     45 H161       -25.0390    45.7220    -6.4290 h1         1 LMO       0.086700
     46 H181       -26.5240    46.4500    -9.9350 h2         1 LMO       0.031700
     47 H191       -23.8000    46.4360    -8.5620 h1         1 LMO       0.073700
     48 H232       -25.6010    49.6210   -11.2420 h1         1 LMO       0.050700
     49 H231       -26.5920    49.5790    -9.7920 h1         1 LMO       0.050700
     50 H252       -29.0900    49.0500   -10.3970 hc         1 LMO       0.039200
     51 H251       -28.3680    47.6750    -9.6160 hc         1 LMO       0.039200
     52 H271       -28.3560    45.5000   -10.6740 hc         1 LMO       0.037200
     53 H272       -28.4470    45.7180   -12.3960 hc         1 LMO       0.037200
     54 H291       -31.6190    45.2750   -10.1730 hc         1 LMO       0.035200
     55 H292       -31.5900    43.5630   -10.4680 hc         1 LMO       0.035200
     56 H302       -30.8280    44.0890    -8.2010 hc         1 LMO       0.034200
     57 H301       -29.6090    45.1780    -8.7930 hc         1 LMO       0.034200
     58 H312       -28.5690    43.1030    -8.1100 hc         1 LMO       0.040700
     59 H311       -28.3530    43.3130    -9.8210 hc         1 LMO       0.040700
     60 H322       -30.1200    41.6980   -10.3390 hc         1 LMO       0.035700
     61 H321       -28.8890    40.9940    -9.3210 hc         1 LMO       0.035700
     62 H331       -31.6490    41.9380    -8.4120 hc         1 LMO       0.035200
     63 H332       -31.1300    40.2880    -8.6310 hc         1 LMO       0.035200
     64 H343       -31.0690    40.8270    -6.2350 hc         1 LMO       0.030367
     65 H342       -29.4120    40.6060    -6.7910 hc         1 LMO       0.030367
     66 H341       -30.0440    42.2260    -6.5160 hc         1 LMO       0.030367
     67 H201       -26.4670    44.3370    -5.4930 ho         1 LMO       0.516000
     68 H211       -23.4850    44.8100   -10.2560 ho         1 LMO       0.520000
     69 H351       -24.4880    43.0860    -7.7200 ho         1 LMO       0.460000
     70 H041       -26.1770    49.1690    -6.1770 h2         1 LMO       0.104700
     71 H031       -24.4100    49.8530    -4.6970 h1         1 LMO       0.074700
     72 H021       -25.0530    47.3500    -3.0810 h1         1 LMO       0.053700
     73 H011       -25.7690    48.8490    -1.3490 h1         1 LMO       0.030700
     74 H061       -27.3900    48.0910    -2.9140 h1         1 LMO       0.061700
     75 H111       -28.0430    49.8440    -1.2770 h1         1 LMO       0.024700
     76 H112       -27.8700    51.0680    -2.5390 h1         1 LMO       0.024700
     77 H101       -22.9950    48.0410    -5.0560 ho         1 LMO       0.520000
     78 H091       -23.2920    47.9880    -1.8870 ho         1 LMO       0.445000
     79 H071       -25.5980    51.0420    -1.6020 ho         1 LMO       0.500000
     80 H121       -30.0210    50.2650    -2.4740 ho         1 LMO       0.504000
     81 C23        -26.1880    48.9610   -10.6020 c3         1 LMO       0.165600
@<TRIPOS>BOND
     1     1     6 1   
     2     1    18 1   
     3     1    35 1   
     4     1    36 1   
     5     2     7 1   
     6     2     9 1   
     7     2    23 1   
     8     2    37 1   
     9     3    10 1   
    10     3    38 1   
    11     3    39 1   
    12     3    81 1   
    13     4    10 1   
    14     4    11 1   
    15     4    40 1   
    16     4    41 1   
    17     5    11 1   
    18     5    12 1   
    19     5    42 1   
    20     5    43 1   
    21     6     7 1   
    22     6    19 1   
    23     6    44 1   
    24     7    20 1   
    25     7    45 1   
    26     8     9 1   
    27     8    19 1   
    28     8    22 1   
    29     8    46 1   
    30     9    21 1   
    31     9    47 1   
    32    10    50 1   
    33    10    51 1   
    34    11    52 1   
    35    11    53 1   
    36    12    13 1   
    37    12    54 1   
    38    12    55 1   
    39    13    14 1   
    40    13    56 1   
    41    13    57 1   
    42    14    15 1   
    43    14    58 1   
    44    14    59 1   
    45    15    16 1   
    46    15    60 1   
    47    15    61 1   
    48    16    17 1   
    49    16    62 1   
    50    16    63 1   
    51    17    64 1   
    52    17    65 1   
    53    17    66 1   
    54    18    24 1   
    55    20    67 1   
    56    21    68 1   
    57    22    81 1   
    58    23    69 1   
    59    24    25 1   
    60    24    33 1   
    61    24    70 1   
    62    25    26 1   
    63    25    30 1   
    64    25    71 1   
    65    26    27 1   
    66    26    31 1   
    67    26    72 1   
    68    27    28 1   
    69    27    32 1   
    70    27    73 1   
    71    28    29 1   
    72    28    33 1   
    73    28    74 1   
    74    29    34 1   
    75    29    75 1   
    76    29    76 1   
    77    30    77 1   
    78    31    78 1   
    79    32    79 1   
    80    34    80 1   
    81    48    81 1   
    82    49    81 1   
@<TRIPOS>SUBSTRUCTURE
     1 LMO         1 TEMP              0 ****  ****    0 ROOT
