@<TRIPOS>MOLECULE
LMP
   52    53     1     0     0
SMALL
abcg2


@<TRIPOS>ATOM
      1 C1           1.9790     0.9600    -0.5260 c5         1 LMP      -0.061700
      2 C2           0.7470     0.1320    -0.9280 c5         1 LMP       0.020000
      3 C3           1.2530    -1.2660    -0.6870 ce         1 LMP       0.324300
      4 C6A         -5.4190     0.4350    -0.2360 c          1 LMP       0.576100
      5 N7A         -6.1030     0.6190     0.9110 n          1 LMP      -0.412800
      6 C9A         -6.9970     1.7480     1.0650 c3         1 LMP       0.088300
      7 C8A         -5.9340    -0.1760     2.1100 c3         1 LMP       0.088300
      8 C5A         -4.3930    -0.7030    -0.2750 c5         1 LMP       0.090500
      9 C2A         -3.1700    -0.3770     0.6250 c5         1 LMP      -0.067400
     10 N3A         -3.8370    -0.9060    -1.6030 n7         1 LMP      -0.838400
     11 C4A         -2.5680    -0.1980    -1.6680 c5         1 LMP       0.150800
     12 C1A         -1.9720    -0.5400    -0.3140 c5         1 LMP       0.078300
     13 S21         -0.6180     0.5280     0.2300 ss         1 LMP      -0.481000
     14 C31          0.7000    -2.5050    -1.3790 c          1 LMP       0.638700
     15 O31          0.0690    -2.2770    -2.4280 o          1 LMP      -0.715500
     16 O32          0.9490    -3.6000    -0.8540 o          1 LMP      -0.715500
     17 N4           2.2390    -1.3180     0.1120 n2         1 LMP      -0.576900
     18 C11          2.8420     1.2160    -1.7570 c3         1 LMP      -0.082100
     19 C5           2.5890     0.0330     0.5500 c5         1 LMP       0.105500
     20 C6           4.0680     0.1660     0.9660 c3         1 LMP      -0.203700
     21 C61          5.1000    -0.4560     0.0130 c3         1 LMP       0.201300
     22 O62          4.8550    -1.8460    -0.1700 oh         1 LMP      -0.736000
     23 C62          6.5140    -0.3380     0.5610 c3         1 LMP      -0.080100
     24 C7           4.3010     1.6490     1.3410 c          1 LMP       0.721000
     25 O71          3.7310     2.0320     2.3830 o          1 LMP      -0.748000
     26 O72          4.9920     2.3560     0.5810 o          1 LMP      -0.748000
     27 H1           1.7010     1.9230    -0.0900 hc         1 LMP       0.070700
     28 H2           0.4110     0.3110    -1.9490 h1         1 LMP       0.085700
     29 H3          -8.0060     1.4030     1.2990 h1         1 LMP       0.035533
     30 H4          -6.6600     2.3890     1.8820 h1         1 LMP       0.035533
     31 H5          -7.0310     2.3350     0.1540 h1         1 LMP       0.035533
     32 H6          -5.2590     0.3030     2.8220 h1         1 LMP       0.035533
     33 H7          -6.9040    -0.2950     2.5940 h1         1 LMP       0.035533
     34 H8          -5.5610    -1.1730     1.8950 h1         1 LMP       0.035533
     35 H9          -4.8760    -1.6270     0.0580 h1         1 LMP       0.064700
     36 H12         -4.4770    -0.5900    -2.3200 hn         1 LMP       0.417000
     37 H14         -1.9550    -0.5640    -2.4910 h1         1 LMP       0.065700
     38 H15         -2.6690     0.8920    -1.7640 h1         1 LMP       0.065700
     39 H16         -1.6460    -1.5800    -0.3100 h1         1 LMP       0.117700
     40 H18          2.2800     1.8030    -2.4850 hc         1 LMP       0.035700
     41 H19          3.7380     1.7730    -1.4930 hc         1 LMP       0.035700
     42 H20          3.1470     0.2900    -2.2470 hc         1 LMP       0.035700
     43 H21          2.0250     0.2130     1.4740 h1         1 LMP       0.074700
     44 H22          4.1460    -0.4110     1.8970 hc         1 LMP       0.042700
     45 H23          5.0670     0.0570    -0.9550 h1         1 LMP       0.027700
     46 H24          3.8930    -1.9860    -0.1120 ho         1 LMP       0.493000
     47 H25          6.5780    -0.7440     1.5730 hc         1 LMP       0.021367
     48 H26          7.2140    -0.8930    -0.0670 hc         1 LMP       0.021367
     49 H27          6.8380     0.6990     0.5870 hc         1 LMP       0.021367
     50 H10         -3.2240     0.6500     0.9980 hc         1 LMP       0.050200
     51 O7A         -5.5880     1.1410    -1.2230 o          1 LMP      -0.624100
     52 H11         -3.1060    -1.0320     1.4910 hc         1 LMP       0.050200
@<TRIPOS>BOND
     1     1     2 1   
     2     1    18 1   
     3     1    19 1   
     4     1    27 1   
     5     2     3 1   
     6     2    13 1   
     7     2    28 1   
     8     3    14 1   
     9     3    17 2   
    10     4     5 1   
    11     4     8 1   
    12     4    51 2   
    13     5     6 1   
    14     5     7 1   
    15     6    29 1   
    16     6    30 1   
    17     6    31 1   
    18     7    32 1   
    19     7    33 1   
    20     7    34 1   
    21     8     9 1   
    22     8    10 1   
    23     8    35 1   
    24     9    12 1   
    25     9    50 1   
    26     9    52 1   
    27    10    11 1   
    28    10    36 1   
    29    11    12 1   
    30    11    37 1   
    31    11    38 1   
    32    12    13 1   
    33    12    39 1   
    34    14    15 1   
    35    14    16 1   
    36    17    19 1   
    37    18    40 1   
    38    18    41 1   
    39    18    42 1   
    40    19    20 1   
    41    19    43 1   
    42    20    21 1   
    43    20    24 1   
    44    20    44 1   
    45    21    22 1   
    46    21    23 1   
    47    21    45 1   
    48    22    46 1   
    49    23    47 1   
    50    23    48 1   
    51    23    49 1   
    52    24    25 1   
    53    24    26 1   
@<TRIPOS>SUBSTRUCTURE
     1 LMP         1 TEMP              0 ****  ****    0 ROOT
