@<TRIPOS>MOLECULE
LMP
   52    53     1     0     0
SMALL
No Charge or Current Charge


@<TRIPOS>ATOM
      1 C1           2.0770     0.6730    -0.8600 c5         1 LMP      -0.061700
      2 C2           0.7400    -0.1130    -0.9550 c5         1 LMP       0.020000
      3 C3           1.2130    -1.4360    -0.3320 ce         1 LMP       0.324300
      4 C6A         -5.6030     0.6660    -0.1700 c          1 LMP       0.576100
      5 N7A         -6.1800     0.5390     1.1230 n          1 LMP      -0.412800
      6 C9A         -7.1770     1.5370     1.5700 c3         1 LMP       0.088300
      7 C8A         -6.1270    -0.7250     1.8960 c3         1 LMP       0.088300
      8 C5A         -4.3950    -0.3290    -0.4380 c5         1 LMP       0.090500
      9 C2A         -3.1810     0.0580     0.4770 c5         1 LMP      -0.067400
     10 N3A         -3.8640    -0.2870    -1.8530 n7         1 LMP      -0.838400
     11 C4A         -2.5050     0.3030    -1.7710 c5         1 LMP       0.150800
     12 C1A         -1.9720    -0.2620    -0.4340 c5         1 LMP       0.078300
     13 S21         -0.5130     0.7460     0.1610 ss         1 LMP      -0.481000
     14 C31          0.7490    -2.7260    -1.0410 c          1 LMP       0.638700
     15 O31         -0.0830    -2.6620    -1.9400 o          1 LMP      -0.715500
     16 O32          1.2260    -3.8030    -0.6910 o          1 LMP      -0.715500
     17 N4           2.2440    -1.3400     0.4720 n2         1 LMP      -0.576900
     18 C11          2.9580     0.4450    -2.1160 c3         1 LMP      -0.082100
     19 C5           2.5990     0.1040     0.5120 c5         1 LMP       0.105500
     20 C6           4.0760     0.3330     0.9810 c3         1 LMP      -0.203700
     21 C61          5.2190    -0.3400     0.1740 c3         1 LMP       0.201300
     22 O62          4.9340    -1.7310     0.0760 oh         1 LMP      -0.736000
     23 C62          6.6160    -0.1730     0.8150 c3         1 LMP      -0.080100
     24 C7           4.3520     1.8370     1.1730 c          1 LMP       0.721000
     25 O71          4.4960     2.2520     2.3140 o          1 LMP      -0.748000
     26 O72          4.4380     2.5560     0.1900 o          1 LMP      -0.748000
     27 H1           1.9000     1.7530    -0.8040 hc         1 LMP       0.070700
     28 H2           0.3700    -0.1970    -1.9850 h1         1 LMP       0.085700
     29 H3          -8.1390     1.3450     1.0770 h1         1 LMP       0.035533
     30 H4          -7.3120     1.4800     2.6580 h1         1 LMP       0.035533
     31 H5          -6.8360     2.5490     1.3160 h1         1 LMP       0.035533
     32 H6          -5.1450    -0.8400     2.3690 h1         1 LMP       0.035533
     33 H7          -6.8910    -0.7230     2.6840 h1         1 LMP       0.035533
     34 H8          -6.3220    -1.5810     1.2370 h1         1 LMP       0.035533
     35 H9          -4.7310    -1.3520    -0.2240 h1         1 LMP       0.064700
     36 H12         -4.4710     0.3100    -2.4340 hn         1 LMP       0.417000
     37 H14         -1.8800     0.0200    -2.6300 h1         1 LMP       0.065700
     38 H15         -2.5570     1.4010    -1.7360 h1         1 LMP       0.065700
     39 H16         -1.7650    -1.3400    -0.4820 h1         1 LMP       0.117700
     40 H18          2.3990     0.6810    -3.0290 hc         1 LMP       0.035700
     41 H19          3.8380     1.0970    -2.1120 hc         1 LMP       0.035700
     42 H20          3.2970    -0.5950    -2.1970 hc         1 LMP       0.035700
     43 H21          1.9940     0.5610     1.3100 h1         1 LMP       0.074700
     44 H22          4.1210    -0.1070     1.9850 hc         1 LMP       0.042700
     45 H23          5.2690     0.0990    -0.8290 h1         1 LMP       0.027700
     46 H24          3.9500    -1.7730     0.2220 ho         1 LMP       0.493000
     47 H25          6.6280    -0.5650     1.8390 hc         1 LMP       0.021367
     48 H26          7.3740    -0.7090     0.2320 hc         1 LMP       0.021367
     49 H27          6.9090     0.8830     0.8480 hc         1 LMP       0.021367
     50 H10         -3.2090     1.1230     0.7410 hc         1 LMP       0.050200
     51 O7A         -5.9880     1.5220    -0.9630 o          1 LMP      -0.624100
     52 H11         -3.1490    -0.5080     1.4130 hc         1 LMP       0.050200
@<TRIPOS>BOND
     1     1     2 1   
     2     1    18 1   
     3     1    19 1   
     4     1    27 1   
     5     2     3 1   
     6     2    13 1   
     7     2    28 1   
     8     3    14 1   
     9     3    17 2   
    10     4     5 1   
    11     4     8 1   
    12     4    51 2   
    13     5     6 1   
    14     5     7 1   
    15     6    29 1   
    16     6    30 1   
    17     6    31 1   
    18     7    32 1   
    19     7    33 1   
    20     7    34 1   
    21     8     9 1   
    22     8    10 1   
    23     8    35 1   
    24     9    12 1   
    25     9    50 1   
    26     9    52 1   
    27    10    11 1   
    28    10    36 1   
    29    11    12 1   
    30    11    37 1   
    31    11    38 1   
    32    12    13 1   
    33    12    39 1   
    34    14    15 1   
    35    14    16 1   
    36    17    19 1   
    37    18    40 1   
    38    18    41 1   
    39    18    42 1   
    40    19    20 1   
    41    19    43 1   
    42    20    21 1   
    43    20    24 1   
    44    20    44 1   
    45    21    22 1   
    46    21    23 1   
    47    21    45 1   
    48    22    46 1   
    49    23    47 1   
    50    23    48 1   
    51    23    49 1   
    52    24    25 1   
    53    24    26 1   
@<TRIPOS>SUBSTRUCTURE
     1 LMP         1 TEMP              0 ****  ****    0 ROOT
