@<TRIPOS>MOLECULE
LMQ
   22    21     1     0     0
SMALL
No Charge or Current Charge


@<TRIPOS>ATOM
      1 N            3.3440     0.4590    -2.7280 n8         1 LMQ      -0.891800
      2 CA           2.5940    -0.4690    -3.6630 c3         1 LMQ       0.013500
      3 CB           2.7210    -0.0040    -5.1510 c3         1 LMQ      -0.022700
      4 CB2          1.9870     1.3410    -5.3950 c3         1 LMQ      -0.082100
      5 CG           4.1950     0.0260    -5.6600 c3         1 LMQ      -0.156400
      6 CD           4.2960     0.1950    -7.1790 c          1 LMQ       0.672100
      7 OE1          4.3760     1.2760    -7.7370 o          1 LMQ      -0.648100
      8 NE2          4.2860    -0.9390    -7.9090 nt         1 LMQ      -0.685000
      9 C            2.8710    -2.0320    -3.5200 c          1 LMQ       0.901600
     10 O            3.9680    -2.4070    -3.1160 o          1 LMQ      -0.837800
     11 OXT          1.9400    -2.8110    -3.6970 o          1 LMQ      -0.837800
     12 H            3.1550     0.1800    -1.7590 hn         1 LMQ       0.329800
     13 H2           4.3480     0.2840    -2.8380 hn         1 LMQ       0.329800
     14 HA           1.5350    -0.3550    -3.3930 h1         1 LMQ       0.033700
     15 HB3          2.1870    -0.7520    -5.7510 hc         1 LMQ       0.050700
     16 HB21         2.5020     2.1710    -4.8970 hc         1 LMQ       0.022367
     17 HB22         1.9280     1.5690    -6.4660 hc         1 LMQ       0.022367
     18 HB23         0.9600     1.2970    -5.0130 hc         1 LMQ       0.022367
     19 HG2          4.7360     0.8450    -5.1730 hc         1 LMQ       0.077700
     20 HG3          4.6480    -0.9370    -5.3990 hc         1 LMQ       0.077700
     21 HE21         4.2170    -1.8350    -7.4500 hn         1 LMQ       0.305000
     22 HE22         4.3480    -0.8770    -8.9140 hn         1 LMQ       0.305000
@<TRIPOS>BOND
     1     1     2 1   
     2     1    12 1   
     3     1    13 1   
     4     2     3 1   
     5     2     9 1   
     6     2    14 1   
     7     3     4 1   
     8     3     5 1   
     9     3    15 1   
    10     4    16 1   
    11     4    17 1   
    12     4    18 1   
    13     5     6 1   
    14     5    19 1   
    15     5    20 1   
    16     6     7 2   
    17     6     8 1   
    18     8    21 1   
    19     8    22 1   
    20     9    10 1   
    21     9    11 1   
@<TRIPOS>SUBSTRUCTURE
     1 LMQ         1 TEMP              0 ****  ****    0 ROOT
