@<TRIPOS>MOLECULE
LMQ
   22    21     1     0     0
SMALL
bcc


@<TRIPOS>ATOM
      1 N            3.3590     0.4870    -2.8520 n8         1 LMQ      -0.891800
      2 CA           2.6280    -0.4690    -3.6730 c3         1 LMQ       0.013500
      3 CB           2.7350    -0.1080    -5.1680 c3         1 LMQ      -0.022700
      4 CB2          2.0420     1.2160    -5.4680 c3         1 LMQ      -0.082100
      5 CG           4.2050    -0.0860    -5.6160 c3         1 LMQ      -0.156400
      6 CD           4.3680     0.2230    -7.0880 c          1 LMQ       0.672100
      7 OE1          4.7980     1.2930    -7.4970 o          1 LMQ      -0.648100
      8 NE2          3.9860    -0.7640    -7.9180 nt         1 LMQ      -0.685000
      9 C            3.0340    -1.9520    -3.4540 c          1 LMQ       0.901600
     10 O            4.0890    -2.1690    -2.8230 o          1 LMQ      -0.837800
     11 OXT          2.2730    -2.8060    -3.9500 o          1 LMQ      -0.837800
     12 H            2.9020     0.5680    -1.9520 hn         1 LMQ       0.329800
     13 H2           4.2610     0.0740    -2.6440 hn         1 LMQ       0.329800
     14 HA           1.5650    -0.3890    -3.4180 h1         1 LMQ       0.033700
     15 HB3          2.2140    -0.8960    -5.7190 hc         1 LMQ       0.050700
     16 HB21         2.5510     2.0490    -4.9820 hc         1 LMQ       0.022367
     17 HB22         2.0060     1.4270    -6.5390 hc         1 LMQ       0.022367
     18 HB23         1.0120     1.1990    -5.1090 hc         1 LMQ       0.022367
     19 HG2          4.7450     0.6750    -5.0500 hc         1 LMQ       0.077700
     20 HG3          4.6720    -1.0510    -5.3990 hc         1 LMQ       0.077700
     21 HE21         3.6580    -1.6510    -7.5740 hn         1 LMQ       0.305000
     22 HE22         4.0390    -0.6440    -8.9160 hn         1 LMQ       0.305000
@<TRIPOS>BOND
     1     1     2 1   
     2     1    12 1   
     3     1    13 1   
     4     2     3 1   
     5     2     9 1   
     6     2    14 1   
     7     3     4 1   
     8     3     5 1   
     9     3    15 1   
    10     4    16 1   
    11     4    17 1   
    12     4    18 1   
    13     5     6 1   
    14     5    19 1   
    15     5    20 1   
    16     6     7 2   
    17     6     8 1   
    18     8    21 1   
    19     8    22 1   
    20     9    10 1   
    21     9    11 1   
@<TRIPOS>SUBSTRUCTURE
     1 LMQ         1 TEMP              0 ****  ****    0 ROOT
