@<TRIPOS>MOLECULE
LMR
   13    12     1     0     0
SMALL
No Charge or Current Charge


@<TRIPOS>ATOM
      1 C1           1.8930     0.1520    -0.0890 c          1 LMR       0.680000
      2 O1A          2.5770    -0.1390     0.8850 o          1 LMR      -0.761500
      3 O1B          2.3460     0.7230    -1.0720 o          1 LMR      -0.761500
      4 C2           0.4160    -0.4050    -0.1440 c3         1 LMR       0.051300
      5 O2           0.2760    -1.6230     0.6310 oh         1 LMR      -0.702000
      6 C3          -0.6130     0.6510     0.3470 c3         1 LMR      -0.190400
      7 C4          -2.0250     0.3280    -0.1750 c          1 LMR       0.722000
      8 O4A         -2.7920    -0.2950     0.5460 o          1 LMR      -0.777000
      9 O4B         -2.3290     0.7170    -1.2930 o          1 LMR      -0.777000
     10 H2           0.2070    -0.6160    -1.2020 h1         1 LMR       0.038700
     11 HO2          1.0530    -1.6200     1.2390 ho         1 LMR       0.443000
     12 H3          -0.5800     0.6530     1.4440 hc         1 LMR       0.017700
     13 H3A         -0.2760     1.5960    -0.0970 hc         1 LMR       0.017700
@<TRIPOS>BOND
     1     1     2 1   
     2     1     3 1   
     3     1     4 1   
     4     4     5 1   
     5     4     6 1   
     6     4    10 1   
     7     5    11 1   
     8     6     7 1   
     9     6    12 1   
    10     6    13 1   
    11     7     8 1   
    12     7     9 1   
@<TRIPOS>SUBSTRUCTURE
     1 LMR         1 TEMP              0 ****  ****    0 ROOT
