@<TRIPOS>MOLECULE
LMR
   13    12     1     0     0
SMALL
bcc


@<TRIPOS>ATOM
      1 C1           1.8770     0.1430     0.0500 c          1 LMR       0.890600
      2 O1A          2.5630    -0.6120     0.7800 o          1 LMR      -0.866800
      3 O1B          2.2310     1.2230    -0.4500 o          1 LMR      -0.866800
      4 C2           0.4430    -0.3510    -0.2340 c3         1 LMR       0.028100
      5 O2           0.2670    -1.6170     0.3600 oh         1 LMR      -0.639800
      6 C3          -0.5940     0.6370     0.2750 c3         1 LMR      -0.190400
      7 C4          -2.0440     0.2460    -0.0570 c          1 LMR       0.932600
      8 O4A         -2.9090     0.4840     0.8110 o          1 LMR      -0.882300
      9 O4B         -2.2520    -0.2470    -1.1850 o          1 LMR      -0.882300
     10 H2           0.3260    -0.4340    -1.3240 h1         1 LMR       0.038700
     11 HO2          1.1180    -1.7390     0.8210 ho         1 LMR       0.404000
     12 H3          -0.4780     0.7740     1.3550 hc         1 LMR       0.017700
     13 H3A         -0.3950     1.6130    -0.1810 hc         1 LMR       0.017700
@<TRIPOS>BOND
     1     1     2 1   
     2     1     3 1   
     3     1     4 1   
     4     4     5 1   
     5     4     6 1   
     6     4    10 1   
     7     5    11 1   
     8     6     7 1   
     9     6    12 1   
    10     6    13 1   
    11     7     8 1   
    12     7     9 1   
@<TRIPOS>SUBSTRUCTURE
     1 LMR         1 TEMP              0 ****  ****    0 ROOT
