@<TRIPOS>MOLECULE
LMT
   81    82     1     0     0
SMALL
No Charge or Current Charge


@<TRIPOS>ATOM
      1 C1B          5.8550     0.5380   -26.4220 c6         1 LMT       0.390300
      2 C2B          4.6470     0.5390   -25.4240 c6         1 LMT       0.154300
      3 C3B          4.1380    -0.9170   -25.2330 c6         1 LMT       0.139300
      4 C4B          3.7920    -1.5550   -26.6100 c6         1 LMT       0.110300
      5 C5B          5.0540    -1.4850   -27.5340 c6         1 LMT       0.143300
      6 C6B          4.7970    -2.0430   -28.9730 c3         1 LMT       0.163600
      7 O1B          7.0140    -0.1280   -25.8690 os         1 LMT      -0.486000
      8 O2B          4.9750     1.1130   -24.1340 oh         1 LMT      -0.730000
      9 O3B          2.9880    -0.9450   -24.3680 oh         1 LMT      -0.668000
     10 O4           3.3290    -2.9110   -26.4140 oh         1 LMT      -0.724000
     11 O5B          5.4990    -0.1060   -27.6640 os         1 LMT      -0.451000
     12 O6B          3.7820    -1.3210   -29.7000 oh         1 LMT      -0.714000
     13 C1          10.8330     1.2980   -24.5960 c6         1 LMT       0.399300
     14 C2           9.6580     2.3370   -24.5410 c6         1 LMT       0.153300
     15 C3           8.3060     1.5720   -24.5650 c6         1 LMT       0.118300
     16 C4           8.2390     0.6460   -25.8260 c6         1 LMT       0.114300
     17 C5           9.4810    -0.2960   -25.8300 c6         1 LMT       0.179300
     18 C6           9.5250    -1.2090   -27.1010 c3         1 LMT       0.169600
     19 O2           9.6870     3.1960   -23.3790 oh         1 LMT      -0.705000
     20 O3           7.2100     2.5090   -24.4870 oh         1 LMT      -0.742000
     21 O5          10.7000     0.4910   -25.7840 os         1 LMT      -0.476000
     22 O6          10.6850    -2.0650   -27.1530 oh         1 LMT      -0.709000
     23 C14         14.5310     2.0050   -24.6270 c3         1 LMT      -0.073400
     24 C15         14.9170     2.4740   -26.0560 c3         1 LMT      -0.064400
     25 C16         13.9100     3.4130   -26.7730 c3         1 LMT      -0.067400
     26 C17         13.5910     4.7450   -26.0440 c3         1 LMT      -0.073400
     27 C18         14.8080     5.6630   -25.7540 c3         1 LMT      -0.070400
     28 C7          15.6270     6.1080   -26.9910 c3         1 LMT      -0.069400
     29 C8          14.8620     6.8530   -28.1190 c3         1 LMT      -0.069400
     30 C9          14.3040     8.2550   -27.7610 c3         1 LMT      -0.071400
     31 C10         12.8800     8.2650   -27.1540 c3         1 LMT      -0.077400
     32 C11         12.3450     9.6910   -26.9010 c3         1 LMT      -0.076400
     33 C12         10.9280     9.7050   -26.2960 c3         1 LMT      -0.088100
     34 H1B          6.1030     1.5880   -26.6420 h2         1 LMT       0.090700
     35 H2B          3.8390     1.1230   -25.8900 h1         1 LMT       0.059700
     36 H3B          4.9530    -1.5070   -24.7850 h1         1 LMT       0.068700
     37 H4B          2.9970    -0.9510   -27.0750 h1         1 LMT       0.069700
     38 H5B          5.8650    -2.0790   -27.0860 h1         1 LMT       0.064700
     39 H6'2         5.7490    -1.9990   -29.5200 h1         1 LMT       0.030700
     40 H6'1         4.5250    -3.1040   -28.8950 h1         1 LMT       0.030700
     41 H2O1         4.2690     0.7680   -23.5300 ho         1 LMT       0.532000
     42 H3O1         2.5730    -1.8230   -24.5360 ho         1 LMT       0.465000
     43 H4O1         2.8520    -3.1780   -27.2350 ho         1 LMT       0.514000
     44 H6B          3.8080    -1.6440   -30.6310 ho         1 LMT       0.505000
     45 H1          10.7870     0.6530   -23.7060 h2         1 LMT       0.031700
     46 H2           9.7200     2.9500   -25.4530 h1         1 LMT       0.064700
     47 H3           8.2800     0.9170   -23.6800 h1         1 LMT       0.052700
     48 H4           8.2950     1.2670   -26.7330 h1         1 LMT       0.064700
     49 H5           9.4450    -0.9470   -24.9440 h1         1 LMT       0.058700
     50 H6D          8.6120    -1.8200   -27.1170 h1         1 LMT       0.031700
     51 H6E          9.4960    -0.5610   -27.9870 h1         1 LMT       0.031700
     52 H2O2         8.7520     3.5060   -23.3010 ho         1 LMT       0.520000
     53 H3O2         6.3810     1.9650   -24.3110 ho         1 LMT       0.542000
     54 H6          10.6590    -2.5320   -28.0200 ho         1 LMT       0.501000
     55 H12         13.2680     0.5870   -23.5810 h1         1 LMT       0.032200
     56 H11         13.2840     0.3730   -25.3460 h1         1 LMT       0.032200
     57 H22         14.4250     2.8680   -23.9580 hc         1 LMT       0.046700
     58 H21         15.3710     1.4210   -24.2320 hc         1 LMT       0.046700
     59 H32         15.8930     2.9710   -26.0080 hc         1 LMT       0.032700
     60 H31         15.0660     1.5870   -26.6840 hc         1 LMT       0.032700
     61 H42         14.2990     3.6400   -27.7730 hc         1 LMT       0.041700
     62 H41         12.9720     2.8710   -26.9420 hc         1 LMT       0.041700
     63 H52         12.8560     5.2970   -26.6410 hc         1 LMT       0.042200
     64 H51         13.0890     4.5230   -25.0940 hc         1 LMT       0.042200
     65 H62         14.4680     6.5500   -25.2080 hc         1 LMT       0.034200
     66 H61         15.4830     5.1450   -25.0620 hc         1 LMT       0.034200
     67 H72         16.4500     6.7480   -26.6480 hc         1 LMT       0.032700
     68 H71         16.1060     5.2240   -27.4290 hc         1 LMT       0.032700
     69 H82         15.5680     6.9840   -28.9490 hc         1 LMT       0.035200
     70 H81         14.0600     6.2200   -28.5160 hc         1 LMT       0.035200
     71 H92         15.0000     8.7660   -27.0840 hc         1 LMT       0.033200
     72 H91         14.2790     8.8510   -28.6820 hc         1 LMT       0.033200
     73 H102        12.1960     7.7420   -27.8330 hc         1 LMT       0.040200
     74 H101        12.8680     7.7180   -26.2070 hc         1 LMT       0.040200
     75 H112        13.0260    10.2200   -26.2230 hc         1 LMT       0.034700
     76 H111        12.3340    10.2500   -27.8450 hc         1 LMT       0.034700
     77 H123        10.5910    10.7360   -26.1350 hc         1 LMT       0.031033
     78 H122        10.2140     9.2120   -26.9670 hc         1 LMT       0.031033
     79 H121        10.9120     9.1840   -25.3310 hc         1 LMT       0.031033
     80 O1          12.1080     1.9620   -24.6300 os         1 LMT      -0.428000
     81 C13         13.2670     1.1190   -24.5410 c3         1 LMT       0.163600
@<TRIPOS>BOND
     1     1     2 1   
     2     1     7 1   
     3     1    11 1   
     4     1    34 1   
     5     2     3 1   
     6     2     8 1   
     7     2    35 1   
     8     3     4 1   
     9     3     9 1   
    10     3    36 1   
    11     4     5 1   
    12     4    10 1   
    13     4    37 1   
    14     5     6 1   
    15     5    11 1   
    16     5    38 1   
    17     6    12 1   
    18     6    39 1   
    19     6    40 1   
    20     7    16 1   
    21     8    41 1   
    22     9    42 1   
    23    10    43 1   
    24    12    44 1   
    25    13    14 1   
    26    13    21 1   
    27    13    45 1   
    28    13    80 1   
    29    14    15 1   
    30    14    19 1   
    31    14    46 1   
    32    15    16 1   
    33    15    20 1   
    34    15    47 1   
    35    16    17 1   
    36    16    48 1   
    37    17    18 1   
    38    17    21 1   
    39    17    49 1   
    40    18    22 1   
    41    18    50 1   
    42    18    51 1   
    43    19    52 1   
    44    20    53 1   
    45    22    54 1   
    46    23    24 1   
    47    23    57 1   
    48    23    58 1   
    49    23    81 1   
    50    24    25 1   
    51    24    59 1   
    52    24    60 1   
    53    25    26 1   
    54    25    61 1   
    55    25    62 1   
    56    26    27 1   
    57    26    63 1   
    58    26    64 1   
    59    27    28 1   
    60    27    65 1   
    61    27    66 1   
    62    28    29 1   
    63    28    67 1   
    64    28    68 1   
    65    29    30 1   
    66    29    69 1   
    67    29    70 1   
    68    30    31 1   
    69    30    71 1   
    70    30    72 1   
    71    31    32 1   
    72    31    73 1   
    73    31    74 1   
    74    32    33 1   
    75    32    75 1   
    76    32    76 1   
    77    33    77 1   
    78    33    78 1   
    79    33    79 1   
    80    55    81 1   
    81    56    81 1   
    82    80    81 1   
@<TRIPOS>SUBSTRUCTURE
     1 LMT         1 TEMP              0 ****  ****    0 ROOT
