@<TRIPOS>MOLECULE
LMT
   81    82     1     0     0
SMALL
bcc


@<TRIPOS>ATOM
      1 C1B          5.8170     0.5740   -26.2290 c6         1 LMT       0.343900
      2 C2B          4.6170     0.2450   -25.3390 c6         1 LMT       0.131100
      3 C3B          4.3170    -1.2460   -25.3550 c6         1 LMT       0.116100
      4 C4B          4.1580    -1.7090   -26.7990 c6         1 LMT       0.087100
      5 C5B          5.4190    -1.3410   -27.5860 c6         1 LMT       0.120100
      6 C6B          5.3690    -1.7200   -29.0500 c3         1 LMT       0.140400
      7 O1B          6.9720     0.0710   -25.6290 os         1 LMT      -0.439600
      8 O2B          4.9000     0.7190   -24.0410 oh         1 LMT      -0.607800
      9 O3B          3.1460    -1.4490   -24.6020 oh         1 LMT      -0.605800
     10 O4           3.9530    -3.1030   -26.7790 oh         1 LMT      -0.601800
     11 O5B          5.6410     0.0610   -27.5110 os         1 LMT      -0.404600
     12 O6B          4.2620    -1.1070   -29.6650 oh         1 LMT      -0.591800
     13 C1          10.6950     1.3280   -24.4170 c6         1 LMT       0.352900
     14 C2           9.5490     2.2450   -24.0100 c6         1 LMT       0.130100
     15 C3           8.2380     1.4880   -24.1760 c6         1 LMT       0.095100
     16 C4           8.1110     0.9070   -25.5840 c6         1 LMT       0.091100
     17 C5           9.3560     0.0860   -25.9270 c6         1 LMT       0.156100
     18 C6           9.3550    -0.3820   -27.3670 c3         1 LMT       0.146400
     19 O2           9.7520     2.6410   -22.6780 oh         1 LMT      -0.582800
     20 O3           7.1940     2.3750   -23.8690 oh         1 LMT      -0.619800
     21 O5          10.4960     0.8950   -25.7420 os         1 LMT      -0.429600
     22 O6          10.4970    -1.1750   -27.5840 oh         1 LMT      -0.586800
     23 C14         14.2750     2.0620   -24.6000 c3         1 LMT      -0.073400
     24 C15         14.5010     2.4180   -26.0690 c3         1 LMT      -0.064400
     25 C16         13.5010     3.3770   -26.7140 c3         1 LMT      -0.067400
     26 C17         13.3540     4.7280   -26.0190 c3         1 LMT      -0.073400
     27 C18         14.6530     5.5110   -25.8430 c3         1 LMT      -0.070400
     28 C7          15.4400     5.7620   -27.1280 c3         1 LMT      -0.069400
     29 C8          14.7100     6.4690   -28.2710 c3         1 LMT      -0.069400
     30 C9          14.3080     7.9260   -28.0230 c3         1 LMT      -0.071400
     31 C10         12.9890     8.1400   -27.2850 c3         1 LMT      -0.077400
     32 C11         12.5870     9.6090   -27.2120 c3         1 LMT      -0.076400
     33 C12         11.2740     9.8250   -26.4720 c3         1 LMT      -0.088100
     34 H1B          5.8880     1.6600   -26.3560 h2         1 LMT       0.090700
     35 H2B          3.7520     0.7750   -25.7620 h1         1 LMT       0.059700
     36 H3B          5.1660    -1.7860   -24.9080 h1         1 LMT       0.068700
     37 H4B          3.2950    -1.1870   -27.2340 h1         1 LMT       0.069700
     38 H5B          6.2690    -1.8900   -27.1550 h1         1 LMT       0.064700
     39 H6'2         6.3170    -1.4170   -29.5150 h1         1 LMT       0.030700
     40 H6'1         5.3280    -2.8140   -29.1150 h1         1 LMT       0.030700
     41 H2O1         4.0850     0.7490   -23.5290 ho         1 LMT       0.433000
     42 H3O1         2.9710    -2.3950   -24.5700 ho         1 LMT       0.426000
     43 H4O1         3.4390    -3.3540   -27.5530 ho         1 LMT       0.415000
     44 H6B          4.2080    -1.4220   -30.5710 ho         1 LMT       0.406000
     45 H1          10.7170     0.4510   -23.7420 h2         1 LMT       0.031700
     46 H2           9.5470     3.1110   -24.6920 h1         1 LMT       0.064700
     47 H3           8.2510     0.6370   -23.4750 h1         1 LMT       0.052700
     48 H4           8.0200     1.7280   -26.3110 h1         1 LMT       0.064700
     49 H5           9.3950    -0.7910   -25.2610 h1         1 LMT       0.058700
     50 H6D          8.4330    -0.9410   -27.5540 h1         1 LMT       0.031700
     51 H6E          9.3370     0.5000   -28.0220 h1         1 LMT       0.031700
     52 H2O2         8.9660     3.1150   -22.3890 ho         1 LMT       0.421000
     53 H3O2         6.3700     1.8680   -23.7770 ho         1 LMT       0.443000
     54 H6          10.4640    -1.5050   -28.4860 ho         1 LMT       0.402000
     55 H12         13.1220     0.7700   -23.3190 h1         1 LMT       0.032200
     56 H11         12.9940     0.3990   -25.0400 h1         1 LMT       0.032200
     57 H22         14.2590     2.9580   -23.9730 hc         1 LMT       0.046700
     58 H21         15.1360     1.4800   -24.2580 hc         1 LMT       0.046700
     59 H32         15.5080     2.8360   -26.1640 hc         1 LMT       0.032700
     60 H31         14.5150     1.4890   -26.6490 hc         1 LMT       0.032700
     61 H42         13.8120     3.5360   -27.7520 hc         1 LMT       0.041700
     62 H41         12.5190     2.9050   -26.7760 hc         1 LMT       0.041700
     63 H52         12.6380     5.3310   -26.5850 hc         1 LMT       0.042200
     64 H51         12.8980     4.5830   -25.0360 hc         1 LMT       0.042200
     65 H62         14.4280     6.4620   -25.3540 hc         1 LMT       0.034200
     66 H61         15.3070     4.9800   -25.1440 hc         1 LMT       0.034200
     67 H72         16.3340     6.3420   -26.8780 hc         1 LMT       0.032700
     68 H71         15.8120     4.8050   -27.5070 hc         1 LMT       0.032700
     69 H82         15.3780     6.4460   -29.1360 hc         1 LMT       0.035200
     70 H81         13.8270     5.8940   -28.5730 hc         1 LMT       0.035200
     71 H92         15.1140     8.4390   -27.4860 hc         1 LMT       0.033200
     72 H91         14.2300     8.4300   -28.9910 hc         1 LMT       0.033200
     73 H102        12.1980     7.5760   -27.7910 hc         1 LMT       0.040200
     74 H101        13.0430     7.7380   -26.2710 hc         1 LMT       0.040200
     75 H112        13.3830    10.1780   -26.7210 hc         1 LMT       0.034700
     76 H111        12.5090    10.0140   -28.2260 hc         1 LMT       0.034700
     77 H123        11.0050    10.8810   -26.4310 hc         1 LMT       0.031033
     78 H122        10.4550     9.2940   -26.9600 hc         1 LMT       0.031033
     79 H121        11.3370     9.4590   -25.4460 hc         1 LMT       0.031033
     80 O1          11.8770     2.0260   -24.3730 os         1 LMT      -0.381600
     81 C13         13.0460     1.2210   -24.3160 c3         1 LMT       0.140400
@<TRIPOS>BOND
     1     1     2 1   
     2     1     7 1   
     3     1    11 1   
     4     1    34 1   
     5     2     3 1   
     6     2     8 1   
     7     2    35 1   
     8     3     4 1   
     9     3     9 1   
    10     3    36 1   
    11     4     5 1   
    12     4    10 1   
    13     4    37 1   
    14     5     6 1   
    15     5    11 1   
    16     5    38 1   
    17     6    12 1   
    18     6    39 1   
    19     6    40 1   
    20     7    16 1   
    21     8    41 1   
    22     9    42 1   
    23    10    43 1   
    24    12    44 1   
    25    13    14 1   
    26    13    21 1   
    27    13    45 1   
    28    13    80 1   
    29    14    15 1   
    30    14    19 1   
    31    14    46 1   
    32    15    16 1   
    33    15    20 1   
    34    15    47 1   
    35    16    17 1   
    36    16    48 1   
    37    17    18 1   
    38    17    21 1   
    39    17    49 1   
    40    18    22 1   
    41    18    50 1   
    42    18    51 1   
    43    19    52 1   
    44    20    53 1   
    45    22    54 1   
    46    23    24 1   
    47    23    57 1   
    48    23    58 1   
    49    23    81 1   
    50    24    25 1   
    51    24    59 1   
    52    24    60 1   
    53    25    26 1   
    54    25    61 1   
    55    25    62 1   
    56    26    27 1   
    57    26    63 1   
    58    26    64 1   
    59    27    28 1   
    60    27    65 1   
    61    27    66 1   
    62    28    29 1   
    63    28    67 1   
    64    28    68 1   
    65    29    30 1   
    66    29    69 1   
    67    29    70 1   
    68    30    31 1   
    69    30    71 1   
    70    30    72 1   
    71    31    32 1   
    72    31    73 1   
    73    31    74 1   
    74    32    33 1   
    75    32    75 1   
    76    32    76 1   
    77    33    77 1   
    78    33    78 1   
    79    33    79 1   
    80    55    81 1   
    81    56    81 1   
    82    80    81 1   
@<TRIPOS>SUBSTRUCTURE
     1 LMT         1 TEMP              0 ****  ****    0 ROOT
