@<TRIPOS>MOLECULE
LMU
   81    82     1     0     0
SMALL
abcg2


@<TRIPOS>ATOM
      1 C1B          0.4250    -0.2250    -5.0400 c6         1 LMU       0.359300
      2 C2B          1.1160    -1.5680    -5.3030 c6         1 LMU       0.128300
      3 C3B          2.4380    -1.6280    -4.5480 c6         1 LMU       0.126300
      4 C4B          3.2970    -0.4250    -4.9090 c6         1 LMU       0.147300
      5 C5B          2.5130     0.8590    -4.6410 c6         1 LMU       0.168300
      6 C6B          3.2630     2.0910    -5.1010 c3         1 LMU       0.168600
      7 O1B          0.0030    -0.1810    -3.7080 os         1 LMU      -0.485000
      8 O2B          0.3280    -2.6780    -4.9600 oh         1 LMU      -0.739000
      9 O3B          3.1750    -2.7850    -4.8770 oh         1 LMU      -0.670000
     10 O4           4.4760    -0.3800    -4.1440 oh         1 LMU      -0.720000
     11 O5B          1.2790     0.8330    -5.3440 os         1 LMU      -0.453000
     12 O6B          2.5250     3.2340    -4.7410 oh         1 LMU      -0.719000
     13 C1          -3.3700     0.4170    -1.4240 c6         1 LMU       0.360300
     14 C2          -3.5350    -0.5470    -2.5990 c6         1 LMU       0.121300
     15 C3          -2.1640    -0.9760    -3.1010 c6         1 LMU       0.149300
     16 C4          -1.3150     0.2430    -3.4330 c6         1 LMU       0.157300
     17 C5          -1.2850     1.2250    -2.2590 c6         1 LMU       0.162300
     18 C6          -0.6460     2.5420    -2.6490 c3         1 LMU       0.164600
     19 O2          -4.2540    -1.7040    -2.2590 oh         1 LMU      -0.707000
     20 O3          -2.2730    -1.7570    -4.2770 oh         1 LMU      -0.743000
     21 O5          -2.6050     1.5190    -1.8320 os         1 LMU      -0.466000
     22 O6          -0.5170     3.3360    -1.4930 oh         1 LMU      -0.716000
     23 C14         -2.0960    -0.4270     1.9100 c3         1 LMU      -0.079400
     24 C15         -1.9460     0.3100     3.2360 c3         1 LMU      -0.074400
     25 C16         -1.2150    -0.5060     4.2930 c3         1 LMU      -0.073400
     26 C17         -1.0340     0.2450     5.6060 c3         1 LMU      -0.074400
     27 C18         -0.2540    -0.5420     6.6500 c3         1 LMU      -0.074400
     28 C7          -0.0500     0.2240     7.9510 c3         1 LMU      -0.074400
     29 C8           0.7530    -0.5510     8.9880 c3         1 LMU      -0.074400
     30 C9           0.9730     0.2220    10.2810 c3         1 LMU      -0.074400
     31 C10          1.7900    -0.5470    11.3120 c3         1 LMU      -0.075400
     32 C11          2.0190     0.2280    12.6040 c3         1 LMU      -0.074400
     33 C12          2.8390    -0.5520    13.6210 c3         1 LMU      -0.088100
     34 H1B         -0.4280    -0.1080    -5.7190 h2         1 LMU       0.082700
     35 H2B          1.3400    -1.5890    -6.3810 h1         1 LMU       0.064700
     36 H3B          2.2340    -1.5970    -3.4680 h1         1 LMU       0.061700
     37 H4B          3.5280    -0.4750    -5.9860 h1         1 LMU       0.050700
     38 H5B          2.3360     0.9420    -3.5600 h1         1 LMU       0.072700
     39 H6'2         4.2530     2.0840    -4.6330 h1         1 LMU       0.037200
     40 H6'1         3.4200     2.0300    -6.1880 h1         1 LMU       0.037200
     41 H2O1        -0.5860    -2.4020    -4.7710 ho         1 LMU       0.540000
     42 H3O1         2.7680    -3.5410    -4.4430 ho         1 LMU       0.465000
     43 H4O1         4.9310    -1.2220    -4.2520 ho         1 LMU       0.525000
     44 H6B          3.0690     4.0060    -4.9190 ho         1 LMU       0.503000
     45 H1          -4.3430     0.8420    -1.1360 h2         1 LMU       0.066700
     46 H2          -4.0380     0.0120    -3.4010 h1         1 LMU       0.054700
     47 H3          -1.6550    -1.5480    -2.3130 h1         1 LMU       0.082700
     48 H4          -1.7500     0.7520    -4.3060 h1         1 LMU       0.059700
     49 H5          -0.7010     0.7780    -1.4420 h1         1 LMU       0.076700
     50 H6D          0.3270     2.3450    -3.1100 h1         1 LMU       0.042200
     51 H6E         -1.2710     3.0270    -3.4120 h1         1 LMU       0.042200
     52 H2O2        -5.1940    -1.4990    -2.2660 ho         1 LMU       0.511000
     53 H3O2        -2.8000    -2.5380    -4.0720 ho         1 LMU       0.532000
     54 H6          -0.0600     4.1450    -1.7400 ho         1 LMU       0.506000
     55 H12         -3.7130     0.7920     1.1570 h1         1 LMU       0.034200
     56 H11         -2.0980     1.3550     0.7180 h1         1 LMU       0.034200
     57 H22         -1.1120    -0.7630     1.5670 hc         1 LMU       0.051700
     58 H21         -2.7070    -1.3240     2.0490 hc         1 LMU       0.051700
     59 H32         -2.9330     0.5970     3.6130 hc         1 LMU       0.039200
     60 H31         -1.4030     1.2460     3.0680 hc         1 LMU       0.039200
     61 H42         -0.2320    -0.7980     3.9050 hc         1 LMU       0.039200
     62 H41         -1.7560    -1.4410     4.4780 hc         1 LMU       0.039200
     63 H52         -2.0160     0.5160     6.0110 hc         1 LMU       0.037200
     64 H51         -0.5190     1.1920     5.4090 hc         1 LMU       0.037200
     65 H62          0.7220    -0.8210     6.2370 hc         1 LMU       0.037700
     66 H61         -0.7720    -1.4850     6.8600 hc         1 LMU       0.037700
     67 H72         -1.0250     0.4930     8.3730 hc         1 LMU       0.036700
     68 H71          0.4570     1.1710     7.7350 hc         1 LMU       0.036700
     69 H82          1.7240    -0.8270     8.5610 hc         1 LMU       0.037200
     70 H81          0.2440    -1.4960     9.2120 hc         1 LMU       0.037200
     71 H92          0.0030     0.4920    10.7140 hc         1 LMU       0.036700
     72 H91          1.4750     1.1700    10.0550 hc         1 LMU       0.036700
     73 H102         2.7580    -0.8200    10.8770 hc         1 LMU       0.036700
     74 H101         1.2870    -1.4930    11.5420 hc         1 LMU       0.036700
     75 H112         1.0520     0.4980    13.0410 hc         1 LMU       0.036700
     76 H111         2.5200     1.1730    12.3740 hc         1 LMU       0.036700
     77 H123         2.9900     0.0160    14.5400 hc         1 LMU       0.031367
     78 H122         2.3460    -1.4880    13.8890 hc         1 LMU       0.031367
     79 H121         3.8240    -0.8040    13.2230 hc         1 LMU       0.031367
     80 O1          -2.8000    -0.2730    -0.3650 os         1 LMU      -0.472000
     81 C13         -2.7140     0.4570     0.8470 c3         1 LMU       0.159600
@<TRIPOS>BOND
     1     1     2 1   
     2     1     7 1   
     3     1    11 1   
     4     1    34 1   
     5     2     3 1   
     6     2     8 1   
     7     2    35 1   
     8     3     4 1   
     9     3     9 1   
    10     3    36 1   
    11     4     5 1   
    12     4    10 1   
    13     4    37 1   
    14     5     6 1   
    15     5    11 1   
    16     5    38 1   
    17     6    12 1   
    18     6    39 1   
    19     6    40 1   
    20     7    16 1   
    21     8    41 1   
    22     9    42 1   
    23    10    43 1   
    24    12    44 1   
    25    13    14 1   
    26    13    21 1   
    27    13    45 1   
    28    13    80 1   
    29    14    15 1   
    30    14    19 1   
    31    14    46 1   
    32    15    16 1   
    33    15    20 1   
    34    15    47 1   
    35    16    17 1   
    36    16    48 1   
    37    17    18 1   
    38    17    21 1   
    39    17    49 1   
    40    18    22 1   
    41    18    50 1   
    42    18    51 1   
    43    19    52 1   
    44    20    53 1   
    45    22    54 1   
    46    23    24 1   
    47    23    57 1   
    48    23    58 1   
    49    23    81 1   
    50    24    25 1   
    51    24    59 1   
    52    24    60 1   
    53    25    26 1   
    54    25    61 1   
    55    25    62 1   
    56    26    27 1   
    57    26    63 1   
    58    26    64 1   
    59    27    28 1   
    60    27    65 1   
    61    27    66 1   
    62    28    29 1   
    63    28    67 1   
    64    28    68 1   
    65    29    30 1   
    66    29    69 1   
    67    29    70 1   
    68    30    31 1   
    69    30    71 1   
    70    30    72 1   
    71    31    32 1   
    72    31    73 1   
    73    31    74 1   
    74    32    33 1   
    75    32    75 1   
    76    32    76 1   
    77    33    77 1   
    78    33    78 1   
    79    33    79 1   
    80    55    81 1   
    81    56    81 1   
    82    80    81 1   
@<TRIPOS>SUBSTRUCTURE
     1 LMU         1 TEMP              0 ****  ****    0 ROOT
