@<TRIPOS>MOLECULE
LMU
   81    82     1     0     0
SMALL
No Charge or Current Charge


@<TRIPOS>ATOM
      1 C1B          0.2930    -0.3360    -5.3460 c6         1 LMU       0.359300
      2 C2B          1.0300    -1.7040    -5.5650 c6         1 LMU       0.128300
      3 C3B          2.5320    -1.5450    -5.1940 c6         1 LMU       0.126300
      4 C4B          3.1640    -0.3640    -5.9850 c6         1 LMU       0.147300
      5 C5B          2.3440     0.9370    -5.7120 c6         1 LMU       0.168300
      6 C6B          2.8800     2.1620    -6.5240 c3         1 LMU       0.168600
      7 O1B          0.2250     0.0240    -3.9490 os         1 LMU      -0.485000
      8 O2B          0.4430    -2.7890    -4.8040 oh         1 LMU      -0.739000
      9 O3B          3.2410    -2.7710    -5.4500 oh         1 LMU      -0.670000
     10 O4           4.5480    -0.2280    -5.6150 oh         1 LMU      -0.720000
     11 O5B          0.9480     0.7280    -6.0670 os         1 LMU      -0.453000
     12 O6B          2.1080     3.3660    -6.3250 oh         1 LMU      -0.719000
     13 C1          -3.1460     0.4010    -1.3090 c6         1 LMU       0.360300
     14 C2          -3.2750    -0.6310    -2.4810 c6         1 LMU       0.121300
     15 C3          -1.8630    -0.9900    -3.0260 c6         1 LMU       0.149300
     16 C4          -1.1000     0.3100    -3.4370 c6         1 LMU       0.157300
     17 C5          -1.0280     1.2530    -2.2030 c6         1 LMU       0.162300
     18 C6          -0.3110     2.6030    -2.5370 c3         1 LMU       0.164600
     19 O2          -3.9550    -1.8410    -2.0690 oh         1 LMU      -0.707000
     20 O3          -1.9890    -1.9440    -4.1030 oh         1 LMU      -0.743000
     21 O5          -2.3710     1.5480    -1.7260 os         1 LMU      -0.466000
     22 O6          -0.2730     3.5220    -1.4250 oh         1 LMU      -0.716000
     23 C14         -1.8060    -0.2690     2.1270 c3         1 LMU      -0.079400
     24 C15         -1.6890     0.4700     3.4780 c3         1 LMU      -0.074400
     25 C16         -1.0030    -0.3770     4.5730 c3         1 LMU      -0.073400
     26 C17         -0.8870     0.3630     5.9240 c3         1 LMU      -0.074400
     27 C18         -0.2020    -0.4840     7.0190 c3         1 LMU      -0.074400
     28 C7          -0.0860     0.2550     8.3700 c3         1 LMU      -0.074400
     29 C8           0.5990    -0.5920     9.4650 c3         1 LMU      -0.074400
     30 C9           0.7150     0.1470    10.8160 c3         1 LMU      -0.074400
     31 C10          1.3990    -0.7000    11.9120 c3         1 LMU      -0.075400
     32 C11          1.5150     0.0390    13.2630 c3         1 LMU      -0.074400
     33 C12          2.1980    -0.8060    14.3560 c3         1 LMU      -0.088100
     34 H1B         -0.7260    -0.4420    -5.7500 h2         1 LMU       0.082700
     35 H2B          0.9640    -1.9330    -6.6390 h1         1 LMU       0.064700
     36 H3B          2.5870    -1.3040    -4.1200 h1         1 LMU       0.061700
     37 H4B          3.0910    -0.5920    -7.0600 h1         1 LMU       0.050700
     38 H5B          2.4080     1.1880    -4.6430 h1         1 LMU       0.072700
     39 H6'2         3.9240     2.3380    -6.2310 h1         1 LMU       0.037200
     40 H6'1         2.8840     1.8890    -7.5880 h1         1 LMU       0.037200
     41 H2O1        -0.4660    -2.4700    -4.5160 ho         1 LMU       0.540000
     42 H3O1         2.6060    -3.4800    -5.1940 ho         1 LMU       0.465000
     43 H4O1         4.8690    -1.1570    -5.5140 ho         1 LMU       0.525000
     44 H6B          2.4820     4.0500    -6.9290 ho         1 LMU       0.503000
     45 H1          -4.1570     0.7370    -1.0330 h2         1 LMU       0.066700
     46 H2          -3.8430    -0.1460    -3.2890 h1         1 LMU       0.054700
     47 H3          -1.2960    -1.4500    -2.2010 h1         1 LMU       0.082700
     48 H4          -1.6730     0.8320    -4.2180 h1         1 LMU       0.059700
     49 H5          -0.4610     0.7590    -1.4010 h1         1 LMU       0.076700
     50 H6D          0.7110     2.3750    -2.8690 h1         1 LMU       0.042200
     51 H6E         -0.8320     3.0620    -3.3890 h1         1 LMU       0.042200
     52 H2O2        -3.6960    -1.9930    -1.1270 ho         1 LMU       0.511000
     53 H3O2        -2.8360    -2.4220    -3.9030 ho         1 LMU       0.532000
     54 H6           0.1270     4.3600    -1.7570 ho         1 LMU       0.506000
     55 H12         -3.5040     0.8480     1.3610 h1         1 LMU       0.034200
     56 H11         -1.9160     1.4990     0.8770 h1         1 LMU       0.034200
     57 H22         -0.8050    -0.5530     1.7810 hc         1 LMU       0.051700
     58 H21         -2.3760    -1.1960     2.2690 hc         1 LMU       0.051700
     59 H32         -2.6920     0.7570     3.8190 hc         1 LMU       0.039200
     60 H31         -1.1230     1.3980     3.3320 hc         1 LMU       0.039200
     61 H42         -0.0010    -0.6630     4.2310 hc         1 LMU       0.039200
     62 H41         -1.5700    -1.3050     4.7180 hc         1 LMU       0.039200
     63 H52         -1.8900     0.6490     6.2650 hc         1 LMU       0.037200
     64 H51         -0.3200     1.2910     5.7790 hc         1 LMU       0.037200
     65 H62          0.8010    -0.7700     6.6780 hc         1 LMU       0.037700
     66 H61         -0.7680    -1.4130     7.1630 hc         1 LMU       0.037700
     67 H72         -1.0890     0.5410     8.7110 hc         1 LMU       0.036700
     68 H71          0.4810     1.1830     8.2250 hc         1 LMU       0.036700
     69 H82          1.6020    -0.8780     9.1240 hc         1 LMU       0.037200
     70 H81          0.0330    -1.5200     9.6090 hc         1 LMU       0.037200
     71 H92         -0.2880     0.4330    11.1570 hc         1 LMU       0.036700
     72 H91          1.2810     1.0750    10.6720 hc         1 LMU       0.036700
     73 H102         2.4030    -0.9860    11.5710 hc         1 LMU       0.036700
     74 H101         0.8330    -1.6280    12.0560 hc         1 LMU       0.036700
     75 H112         0.5130     0.3250    13.6080 hc         1 LMU       0.036700
     76 H111         2.0830     0.9670    13.1230 hc         1 LMU       0.036700
     77 H123         2.2570    -0.2410    15.2940 hc         1 LMU       0.031367
     78 H122         1.6340    -1.7270    14.5440 hc         1 LMU       0.031367
     79 H121         3.2170    -1.0790    14.0550 hc         1 LMU       0.031367
     80 O1          -2.5330    -0.2150    -0.1600 os         1 LMU      -0.472000
     81 C13         -2.4900     0.5770     1.0370 c3         1 LMU       0.159600
@<TRIPOS>BOND
     1     1     2 1   
     2     1     7 1   
     3     1    11 1   
     4     1    34 1   
     5     2     3 1   
     6     2     8 1   
     7     2    35 1   
     8     3     4 1   
     9     3     9 1   
    10     3    36 1   
    11     4     5 1   
    12     4    10 1   
    13     4    37 1   
    14     5     6 1   
    15     5    11 1   
    16     5    38 1   
    17     6    12 1   
    18     6    39 1   
    19     6    40 1   
    20     7    16 1   
    21     8    41 1   
    22     9    42 1   
    23    10    43 1   
    24    12    44 1   
    25    13    14 1   
    26    13    21 1   
    27    13    45 1   
    28    13    80 1   
    29    14    15 1   
    30    14    19 1   
    31    14    46 1   
    32    15    16 1   
    33    15    20 1   
    34    15    47 1   
    35    16    17 1   
    36    16    48 1   
    37    17    18 1   
    38    17    21 1   
    39    17    49 1   
    40    18    22 1   
    41    18    50 1   
    42    18    51 1   
    43    19    52 1   
    44    20    53 1   
    45    22    54 1   
    46    23    24 1   
    47    23    57 1   
    48    23    58 1   
    49    23    81 1   
    50    24    25 1   
    51    24    59 1   
    52    24    60 1   
    53    25    26 1   
    54    25    61 1   
    55    25    62 1   
    56    26    27 1   
    57    26    63 1   
    58    26    64 1   
    59    27    28 1   
    60    27    65 1   
    61    27    66 1   
    62    28    29 1   
    63    28    67 1   
    64    28    68 1   
    65    29    30 1   
    66    29    69 1   
    67    29    70 1   
    68    30    31 1   
    69    30    71 1   
    70    30    72 1   
    71    31    32 1   
    72    31    73 1   
    73    31    74 1   
    74    32    33 1   
    75    32    75 1   
    76    32    76 1   
    77    33    77 1   
    78    33    78 1   
    79    33    79 1   
    80    55    81 1   
    81    56    81 1   
    82    80    81 1   
@<TRIPOS>SUBSTRUCTURE
     1 LMU         1 TEMP              0 ****  ****    0 ROOT
