@<TRIPOS>MOLECULE
LMV
   61    64     1     0     0
SMALL
No Charge or Current Charge


@<TRIPOS>ATOM
      1 C1          -1.4840     5.3120    -0.0790 cy         1 LMV      -0.089400
      2 C2          -1.8620     3.7960    -0.2210 cy         1 LMV      -0.098700
      3 C3          -2.6870     4.0190     1.0990 cy         1 LMV      -0.089400
      4 O4           6.5370    -0.1250    -1.7220 o          1 LMV      -0.521500
      5 C7           1.2700     0.5740    -0.3450 ca         1 LMV      -0.093000
      6 C8           2.2540    -0.4430    -0.2820 ca         1 LMV      -0.163600
      7 C9           1.8340    -1.7790    -0.0770 ca         1 LMV      -0.078000
      8 C10          0.4700    -2.0820     0.0500 ca         1 LMV      -0.126000
      9 C11          6.8540    -0.2400     0.9300 c3         1 LMV      -0.317400
     10 C12         -2.5190     0.9400     0.0360 c6         1 LMV       0.171800
     11 C13          8.3960    -0.2420     1.1350 c3         1 LMV      -0.030700
     12 C14          9.1430     0.6690     0.1330 c3         1 LMV      -0.093600
     13 C15          8.7370     0.1580     2.5880 c3         1 LMV      -0.093600
     14 C16         -0.1090     0.2880    -0.2160 ca         1 LMV       0.228000
     15 C19          3.7180    -0.0680    -0.4270 c          1 LMV       0.652700
     16 C20         -0.7060     2.7720    -0.2350 c3         1 LMV       0.226800
     17 C21         -6.7830    -1.8060     0.8900 ca         1 LMV       0.131000
     18 C22         -5.6680    -2.0200     1.7130 ca         1 LMV      -0.105000
     19 C24         -4.2200    -0.9780     0.0380 ca         1 LMV      -0.084300
     20 N1          -1.0960     1.3290    -0.2370 nh         1 LMV      -0.796400
     21 C17         -0.4960    -1.0700    -0.0310 ca         1 LMV       0.117100
     22 O1          -1.8230    -1.4330     0.0890 os         1 LMV      -0.342100
     23 C18         -2.8230    -0.5160    -0.4080 c6         1 LMV       0.215600
     24 O2           4.0720     1.0910    -0.5750 o          1 LMV      -0.563100
     25 N2           4.6140    -1.0880    -0.3630 ns         1 LMV      -0.585300
     26 S1           6.2640    -1.0190    -0.5920 s6         1 LMV       1.199800
     27 O3           6.7430    -2.4050    -0.6190 o          1 LMV      -0.521500
     28 C23         -4.3920    -1.6060     1.2930 ca         1 LMV      -0.068000
     29 C5          -5.3550    -0.7580    -0.7780 ca         1 LMV       0.132000
     30 C6          -6.6270    -1.1740    -0.3520 ca         1 LMV      -0.099000
     31 Cl1         -5.2240     0.0560    -2.3380 cl         1 LMV      -0.193000
     32 C4          -2.8840     5.4850     0.5940 cy         1 LMV      -0.090400
     33 H1          -0.6330     5.5140     0.5840 hc         1 LMV       0.051200
     34 H2          -1.3320     5.8580    -1.0160 hc         1 LMV       0.051200
     35 H3          -2.4850     3.6110    -1.1060 hc         1 LMV       0.070700
     36 H4          -3.6020     3.4280     1.2050 hc         1 LMV       0.051200
     37 H5          -2.1040     3.9280     2.0240 hc         1 LMV       0.051200
     38 H6           1.5930     1.5990    -0.4940 ha         1 LMV       0.135000
     39 H7           2.5460    -2.5980    -0.0130 ha         1 LMV       0.121000
     40 H8           0.1560    -3.1120     0.2020 ha         1 LMV       0.133000
     41 H9           6.3720    -0.8050     1.7350 h1         1 LMV       0.102700
     42 H10          6.4580     0.7820     0.9280 h1         1 LMV       0.102700
     43 H11         -2.7350     1.0370     1.1100 h1         1 LMV       0.061700
     44 H12         -3.2230     1.5910    -0.5020 h1         1 LMV       0.061700
     45 H13          8.7630    -1.2670     0.9930 hc         1 LMV       0.063700
     46 H14          8.7600     1.6960     0.1760 hc         1 LMV       0.041200
     47 H15         10.2160     0.6960     0.3610 hc         1 LMV       0.041200
     48 H16          9.0390     0.3040    -0.8950 hc         1 LMV       0.041200
     49 H17          8.2520    -0.5200     3.3010 hc         1 LMV       0.041200
     50 H18          9.8190     0.1100     2.7610 hc         1 LMV       0.041200
     51 H19          8.3990     1.1790     2.8010 hc         1 LMV       0.041200
     52 H20         -0.1110     2.9870    -1.1330 h1         1 LMV       0.044700
     53 H21         -0.0760     2.9780     0.6420 h1         1 LMV       0.044700
     54 H22         -5.7920    -2.5050     2.6790 ha         1 LMV       0.137000
     55 H23         -2.7580    -0.5490    -1.5040 h1         1 LMV       0.085700
     56 H24          4.2930    -2.0310    -0.2400 hn         1 LMV       0.348500
     57 H25         -3.5390    -1.7730     1.9470 ha         1 LMV       0.138000
     58 H26         -7.4940    -1.0020    -0.9840 ha         1 LMV       0.147000
     59 H27         -2.9530     6.2560     1.3700 hc         1 LMV       0.052200
     60 H28         -3.7160     5.6190    -0.1080 hc         1 LMV       0.052200
     61 Cl2         -8.3780    -2.3230     1.4190 cl         1 LMV      -0.185000
@<TRIPOS>BOND
     1     1     2 1   
     2     1    32 1   
     3     1    33 1   
     4     1    34 1   
     5     2     3 1   
     6     2    16 1   
     7     2    35 1   
     8     3    32 1   
     9     3    36 1   
    10     3    37 1   
    11     4    26 2   
    12     5     6 ar  
    13     5    14 ar  
    14     5    38 1   
    15     6     7 ar  
    16     6    15 1   
    17     7     8 ar  
    18     7    39 1   
    19     8    21 ar  
    20     8    40 1   
    21     9    11 1   
    22     9    26 1   
    23     9    41 1   
    24     9    42 1   
    25    10    20 1   
    26    10    23 1   
    27    10    43 1   
    28    10    44 1   
    29    11    12 1   
    30    11    13 1   
    31    11    45 1   
    32    12    46 1   
    33    12    47 1   
    34    12    48 1   
    35    13    49 1   
    36    13    50 1   
    37    13    51 1   
    38    14    20 1   
    39    14    21 ar  
    40    15    24 2   
    41    15    25 1   
    42    16    20 1   
    43    16    52 1   
    44    16    53 1   
    45    17    18 ar  
    46    17    30 ar  
    47    17    61 1   
    48    18    28 ar  
    49    18    54 1   
    50    19    23 1   
    51    19    28 ar  
    52    19    29 ar  
    53    21    22 1   
    54    22    23 1   
    55    23    55 1   
    56    25    26 1   
    57    25    56 1   
    58    26    27 2   
    59    28    57 1   
    60    29    30 ar  
    61    29    31 1   
    62    30    58 1   
    63    32    59 1   
    64    32    60 1   
@<TRIPOS>SUBSTRUCTURE
     1 LMV         1 TEMP              0 ****  ****    0 ROOT
