@<TRIPOS>MOLECULE
LMV
   61    64     1     0     0
SMALL
abcg2


@<TRIPOS>ATOM
      1 C1          -1.1670     5.0870    -0.1620 cy         1 LMV      -0.089400
      2 C2          -1.6810     3.6340    -0.2340 cy         1 LMV      -0.098700
      3 C3          -2.5800     3.9460     0.9860 cy         1 LMV      -0.089400
      4 O4           6.4990    -0.6840    -1.5830 o          1 LMV      -0.521500
      5 C7           1.2500     0.4300    -0.4690 ca         1 LMV      -0.093000
      6 C8           2.1630    -0.6220    -0.5520 ca         1 LMV      -0.163600
      7 C9           1.7040    -1.9320    -0.6240 ca         1 LMV      -0.078000
      8 C10          0.3410    -2.1770    -0.6110 ca         1 LMV      -0.126000
      9 C11          6.5470     0.0610     0.9830 c3         1 LMV      -0.317400
     10 C12         -2.3200     0.7990     0.2030 c6         1 LMV       0.171800
     11 C13          8.0270     0.0530     1.3730 c3         1 LMV      -0.030700
     12 C14          8.9610     0.4180     0.2240 c3         1 LMV      -0.093600
     13 C15          8.1950     1.0330     2.5340 c3         1 LMV      -0.093600
     14 C16         -0.1240     0.2060    -0.4520 ca         1 LMV       0.228000
     15 C19          3.6010    -0.2720    -0.5710 c          1 LMV       0.652700
     16 C20         -0.6030     2.5740    -0.1490 c3         1 LMV       0.226800
     17 C21         -6.5260    -1.7890     1.1180 ca         1 LMV       0.131000
     18 C22         -5.3390    -2.3940     1.4950 ca         1 LMV      -0.105000
     19 C24         -4.1200    -0.9170     0.0060 ca         1 LMV      -0.084300
     20 N1          -1.0630     1.2160    -0.3690 nh         1 LMV      -0.796400
     21 C17         -0.5650    -1.1340    -0.5180 ca         1 LMV       0.117100
     22 O1          -1.8730    -1.4650    -0.4990 os         1 LMV      -0.342100
     23 C18         -2.8210    -0.4160    -0.5640 c6         1 LMV       0.215600
     24 O2           4.0160     0.8240    -0.8850 o          1 LMV      -0.563100
     25 N2           4.4600    -1.2760    -0.1830 ns         1 LMV      -0.585300
     26 S1           6.1350    -1.1560    -0.2610 s6         1 LMV       1.199800
     27 O3           6.5990    -2.4620     0.1790 o          1 LMV      -0.521500
     28 C23         -4.1510    -1.9510     0.9380 ca         1 LMV      -0.068000
     29 C5          -5.3340    -0.3300    -0.3390 ca         1 LMV       0.132000
     30 C6          -6.5390    -0.7510     0.2020 ca         1 LMV      -0.099000
     31 CL1         -5.3810     0.9830    -1.4720 cl         1 LMV      -0.193000
     32 C4          -2.3890     5.4460     0.7020 cy         1 LMV      -0.090400
     33 H1          -0.2370     5.1490     0.4090 hc         1 LMV       0.051200
     34 H2          -1.0280     5.6170    -1.1050 hc         1 LMV       0.051200
     35 H3          -2.2840     3.4890    -1.1350 hc         1 LMV       0.070700
     36 H4          -3.6020     3.5620     0.9790 hc         1 LMV       0.051200
     37 H5          -2.1040     3.6400     1.9210 hc         1 LMV       0.051200
     38 H6           1.6310     1.4380    -0.3980 ha         1 LMV       0.135000
     39 H7           2.3790    -2.7710    -0.7260 ha         1 LMV       0.121000
     40 H8          -0.0320    -3.1910    -0.6770 ha         1 LMV       0.133000
     41 H9           5.9240    -0.1840     1.8450 h1         1 LMV       0.102700
     42 H10          6.2370     1.0310     0.5930 h1         1 LMV       0.102700
     43 H11         -2.2420     0.5600     1.2730 h1         1 LMV       0.061700
     44 H12         -3.0550     1.5920     0.0990 h1         1 LMV       0.061700
     45 H13          8.2800    -0.9460     1.7350 hc         1 LMV       0.063700
     46 H14          8.6810     1.3740    -0.2220 hc         1 LMV       0.041200
     47 H15          9.9820     0.5130     0.5950 hc         1 LMV       0.041200
     48 H16          8.9740    -0.3310    -0.5670 hc         1 LMV       0.041200
     49 H17          7.5610     0.7670     3.3800 hc         1 LMV       0.041200
     50 H18          9.2290     1.0350     2.8810 hc         1 LMV       0.041200
     51 H19          7.9430     2.0500     2.2280 hc         1 LMV       0.041200
     52 H20          0.1350     2.8020    -0.9240 h1         1 LMV       0.044700
     53 H21         -0.0840     2.6660     0.8170 h1         1 LMV       0.044700
     54 H22         -5.3340    -3.2000     2.2160 ha         1 LMV       0.137000
     55 H23         -2.9600    -0.1320    -1.6130 h1         1 LMV       0.085700
     56 H24          4.1140    -2.1080     0.2770 hn         1 LMV       0.348500
     57 H25         -3.2290    -2.4280     1.2400 ha         1 LMV       0.138000
     58 H26         -7.4660    -0.2760    -0.0870 ha         1 LMV       0.147000
     59 H27         -2.2270     6.1040     1.5550 hc         1 LMV       0.052200
     60 H28         -3.2050     5.8520     0.1030 hc         1 LMV       0.052200
     61 CL2         -8.0200    -2.3300     1.7980 cl         1 LMV      -0.185000
@<TRIPOS>BOND
     1     1     2 1   
     2     1    32 1   
     3     1    33 1   
     4     1    34 1   
     5     2     3 1   
     6     2    16 1   
     7     2    35 1   
     8     3    32 1   
     9     3    36 1   
    10     3    37 1   
    11     4    26 2   
    12     5     6 ar  
    13     5    14 ar  
    14     5    38 1   
    15     6     7 ar  
    16     6    15 1   
    17     7     8 ar  
    18     7    39 1   
    19     8    21 ar  
    20     8    40 1   
    21     9    11 1   
    22     9    26 1   
    23     9    41 1   
    24     9    42 1   
    25    10    20 1   
    26    10    23 1   
    27    10    43 1   
    28    10    44 1   
    29    11    12 1   
    30    11    13 1   
    31    11    45 1   
    32    12    46 1   
    33    12    47 1   
    34    12    48 1   
    35    13    49 1   
    36    13    50 1   
    37    13    51 1   
    38    14    20 1   
    39    14    21 ar  
    40    15    24 2   
    41    15    25 1   
    42    16    20 1   
    43    16    52 1   
    44    16    53 1   
    45    17    18 ar  
    46    17    30 ar  
    47    17    61 1   
    48    18    28 ar  
    49    18    54 1   
    50    19    23 1   
    51    19    28 ar  
    52    19    29 ar  
    53    21    22 1   
    54    22    23 1   
    55    23    55 1   
    56    25    26 1   
    57    25    56 1   
    58    26    27 2   
    59    28    57 1   
    60    29    30 ar  
    61    29    31 1   
    62    30    58 1   
    63    32    59 1   
    64    32    60 1   
@<TRIPOS>SUBSTRUCTURE
     1 LMV         1 TEMP              0 ****  ****    0 ROOT
