@<TRIPOS>MOLECULE
LMW
   29    29     1     0     0
SMALL
No Charge or Current Charge


@<TRIPOS>ATOM
      1 N1          48.0640    27.4380   111.6890 nh         1 LMW      -0.835400
      2 C4          46.3920    29.1750   110.7290 c3         1 LMW       0.137600
      3 C5          48.1220    27.2840   113.1060 ca         1 LMW       0.317000
      4 C6          48.7630    26.1700   113.6950 ca         1 LMW      -0.161000
      5 C7          48.8210    26.0200   115.0940 ca         1 LMW      -0.120500
      6 C8          48.2390    26.9810   115.9340 ca         1 LMW       0.211000
      7 C10         47.5420    28.2440   113.9680 ca         1 LMW      -0.161000
      8 C1          49.6310    26.0940   110.2240 c3         1 LMW      -0.121100
      9 C2          48.2020    26.2810   110.7690 c3         1 LMW       0.234800
     10 C3          47.8670    28.7750   111.0500 c3         1 LMW       0.235800
     11 O1          45.8470    28.4200   109.6290 oh         1 LMW      -0.659000
     12 N2          48.2940    26.8340   117.2960 nv         1 LMW      -1.048000
     13 C9          47.5990    28.0930   115.3670 ca         1 LMW      -0.120500
     14 H1          46.3740    30.2450   110.4830 h1         1 LMW       0.023200
     15 H2          45.7750    29.0370   111.6270 h1         1 LMW       0.023200
     16 H3          49.2330    25.4120   113.0790 ha         1 LMW       0.108000
     17 H4          49.3220    25.1550   115.5200 ha         1 LMW       0.106500
     18 H5          47.0330    29.1130   113.5680 ha         1 LMW       0.108000
     19 H6          49.6740    25.2150   109.5710 hc         1 LMW       0.038367
     20 H7          49.9420    26.9690   109.6410 hc         1 LMW       0.038367
     21 H8          50.3490    25.9520   111.0400 hc         1 LMW       0.038367
     22 H9          47.5230    26.4010   109.9150 h1         1 LMW       0.051200
     23 H10         47.8860    25.3560   111.2710 h1         1 LMW       0.051200
     24 H11         48.4440    28.8280   110.1160 h1         1 LMW       0.051200
     25 H12         48.2960    29.5520   111.6970 h1         1 LMW       0.051200
     26 H13         44.9060    28.6910   109.5340 ho         1 LMW       0.441000
     27 H14         47.8160    27.4930   117.9090 hn         1 LMW       0.426500
     28 H15         48.6980    25.9960   117.7120 hn         1 LMW       0.426500
     29 H16         47.1430    28.8440   116.0060 ha         1 LMW       0.106500
@<TRIPOS>BOND
     1     1     3 1   
     2     1     9 1   
     3     1    10 1   
     4     2    10 1   
     5     2    11 1   
     6     2    14 1   
     7     2    15 1   
     8     3     4 ar  
     9     3     7 ar  
    10     4     5 ar  
    11     4    16 1   
    12     5     6 ar  
    13     5    17 1   
    14     6    12 1   
    15     6    13 ar  
    16     7    13 ar  
    17     7    18 1   
    18     8     9 1   
    19     8    19 1   
    20     8    20 1   
    21     8    21 1   
    22     9    22 1   
    23     9    23 1   
    24    10    24 1   
    25    10    25 1   
    26    11    26 1   
    27    12    27 1   
    28    12    28 1   
    29    13    29 1   
@<TRIPOS>SUBSTRUCTURE
     1 LMW         1 TEMP              0 ****  ****    0 ROOT
