@<TRIPOS>MOLECULE
LMW
   29    29     1     0     0
SMALL
bcc


@<TRIPOS>ATOM
      1 N1          48.0220    27.4660   111.5970 nh         1 LMW      -0.697000
      2 C4          46.2600    29.0770   110.8950 c3         1 LMW       0.114400
      3 C5          48.1060    27.3170   112.9680 ca         1 LMW       0.178600
      4 C6          48.4780    26.1000   113.5630 ca         1 LMW      -0.179000
      5 C7          48.5570    25.9510   114.9390 ca         1 LMW      -0.138500
      6 C8          48.2740    27.0020   115.8100 ca         1 LMW       0.072600
      7 C10         47.8130    28.3680   113.8530 ca         1 LMW      -0.179000
      8 C1          49.8440    26.1870   110.4780 c3         1 LMW      -0.121100
      9 C2          48.3480    26.3730   110.7070 c3         1 LMW       0.234800
     10 C3          47.7400    28.7500   111.0040 c3         1 LMW       0.235800
     11 O1          45.6510    28.1450   110.0310 oh         1 LMW      -0.596800
     12 N2          48.4190    26.8670   117.1920 nv         1 LMW      -0.799200
     13 C9          47.9000    28.2120   115.2290 ca         1 LMW      -0.138500
     14 H1          46.1630    30.1060   110.5220 h1         1 LMW       0.023200
     15 H2          45.8010    29.0570   111.8920 h1         1 LMW       0.023200
     16 H3          48.7230    25.2390   112.9560 ha         1 LMW       0.126000
     17 H4          48.8530    24.9870   115.3390 ha         1 LMW       0.124500
     18 H5          47.5020    29.3350   113.4850 ha         1 LMW       0.126000
     19 H6          50.0260    25.3500   109.8030 hc         1 LMW       0.038367
     20 H7          50.2800    27.0800   110.0270 hc         1 LMW       0.038367
     21 H8          50.3760    25.9880   111.4080 hc         1 LMW       0.038367
     22 H9          47.8590    26.5650   109.7530 h1         1 LMW       0.051200
     23 H10         47.9040    25.4460   111.0770 h1         1 LMW       0.051200
     24 H11         48.1790    28.7710   110.0030 h1         1 LMW       0.051200
     25 H12         48.2360    29.5540   111.5550 h1         1 LMW       0.051200
     26 H13         44.7010    28.2950   110.0470 ho         1 LMW       0.402000
     27 H14         47.8370    27.4980   117.7230 hn         1 LMW       0.371300
     28 H15         48.2830    25.9240   117.5240 hn         1 LMW       0.371300
     29 H16         47.6620    29.0600   115.8620 ha         1 LMW       0.124500
@<TRIPOS>BOND
     1     1     3 1   
     2     1     9 1   
     3     1    10 1   
     4     2    10 1   
     5     2    11 1   
     6     2    14 1   
     7     2    15 1   
     8     3     4 ar  
     9     3     7 ar  
    10     4     5 ar  
    11     4    16 1   
    12     5     6 ar  
    13     5    17 1   
    14     6    12 1   
    15     6    13 ar  
    16     7    13 ar  
    17     7    18 1   
    18     8     9 1   
    19     8    19 1   
    20     8    20 1   
    21     8    21 1   
    22     9    22 1   
    23     9    23 1   
    24    10    24 1   
    25    10    25 1   
    26    11    26 1   
    27    12    27 1   
    28    12    28 1   
    29    13    29 1   
@<TRIPOS>SUBSTRUCTURE
     1 LMW         1 TEMP              0 ****  ****    0 ROOT
