@<TRIPOS>MOLECULE
LMZ
   34    34     1     0     0
SMALL
bcc


@<TRIPOS>ATOM
      1 N1           1.4120    -0.2150    -2.0630 ns         1 LMZ      -0.498100
      2 C2           1.9190    -0.4380    -3.3320 c          1 LMZ       0.842500
      3 N3           1.0080    -0.3220    -4.3360 ns         1 LMZ      -0.609500
      4 C4          -0.3430     0.0030    -4.2250 c          1 LMZ       0.754700
      5 C5          -0.7940     0.2190    -2.8680 cc         1 LMZ      -0.324600
      6 C6           0.1260     0.0910    -1.7900 cd         1 LMZ       0.434600
      7 N7          -0.2460     0.2600    -0.5430 nu         1 LMZ      -0.746000
      8 C8           0.6020     0.2070     0.6320 c3         1 LMZ       0.176800
      9 C9          -0.2890     0.0450     1.8660 c3         1 LMZ       0.104100
     10 O9          -1.3400     0.9840     1.8460 oh         1 LMZ      -0.574800
     11 C10          0.5390     0.1530     3.1610 c3         1 LMZ       0.076100
     12 O10          1.8440    -0.3580     3.0130 oh         1 LMZ      -0.587800
     13 C11         -0.1530    -0.5110     4.3680 c3         1 LMZ       0.120100
     14 O11         -1.5480    -0.3450     4.3830 oh         1 LMZ      -0.558800
     15 C12          0.4890    -0.0330     5.6610 c3         1 LMZ       0.109400
     16 O12         -0.0190    -0.7890     6.7340 oh         1 LMZ      -0.580800
     17 N5          -2.0490     0.5500    -2.4780 ne         1 LMZ      -0.016300
     18 O52         -2.9320     0.6910    -3.3080 o          1 LMZ      -0.215300
     19 O4          -1.0170     0.0780    -5.2300 o          1 LMZ      -0.563500
     20 O2           3.0830    -0.7110    -3.5040 o          1 LMZ      -0.614500
     21 HN1          2.0880    -0.2860    -1.3150 hn         1 LMZ       0.344500
     22 HN3          1.3580    -0.4800    -5.2730 hn         1 LMZ       0.348500
     23 HN7         -1.2110     0.5450    -0.4180 hn         1 LMZ       0.503800
     24 H81          1.2060     1.1180     0.7000 h1         1 LMZ       0.063200
     25 H82          1.2810    -0.6420     0.5620 h1         1 LMZ       0.063200
     26 H9          -0.7690    -0.9380     1.8080 h1         1 LMZ       0.104700
     27 HO9         -0.9680     1.8720     1.9080 ho         1 LMZ       0.407000
     28 H10          0.6760     1.2250     3.3640 h1         1 LMZ       0.072700
     29 HO10         1.7990    -1.3180     2.9400 ho         1 LMZ       0.412000
     30 H11          0.0040    -1.5930     4.2750 h1         1 LMZ       0.083700
     31 HO11        -1.7540     0.5960     4.3670 ho         1 LMZ       0.407000
     32 H121         0.2730     1.0400     5.7810 h1         1 LMZ       0.026200
     33 H122         1.5770    -0.1300     5.5760 h1         1 LMZ       0.026200
     34 HO12         0.4470    -0.5230     7.5310 ho         1 LMZ       0.409000
@<TRIPOS>BOND
     1     1     2 1   
     2     1     6 1   
     3     1    21 1   
     4     2     3 1   
     5     2    20 2   
     6     3     4 1   
     7     3    22 1   
     8     4     5 1   
     9     4    19 2   
    10     5     6 2   
    11     5    17 1   
    12     6     7 1   
    13     7     8 1   
    14     7    23 1   
    15     8     9 1   
    16     8    24 1   
    17     8    25 1   
    18     9    10 1   
    19     9    11 1   
    20     9    26 1   
    21    10    27 1   
    22    11    12 1   
    23    11    13 1   
    24    11    28 1   
    25    12    29 1   
    26    13    14 1   
    27    13    15 1   
    28    13    30 1   
    29    14    31 1   
    30    15    16 1   
    31    15    32 1   
    32    15    33 1   
    33    16    34 1   
    34    17    18 2   
@<TRIPOS>SUBSTRUCTURE
     1 LMZ         1 TEMP              0 ****  ****    0 ROOT
