@<TRIPOS>MOLECULE
LMZ
   34    34     1     0     0
SMALL
No Charge or Current Charge


@<TRIPOS>ATOM
      1 N1           0.9250     0.6550    -1.4420 ns         1 LMZ      -0.544600
      2 C2           1.5340     1.4500    -2.3500 c          1 LMZ       0.633000
      3 N3           1.0500     1.3220    -3.6050 ns         1 LMZ      -0.475500
      4 C4           0.0450     0.5140    -4.0380 c          1 LMZ       0.612200
      5 C5          -0.5840    -0.3140    -2.9790 cc         1 LMZ      -0.324600
      6 C6          -0.0790    -0.2100    -1.7090 cd         1 LMZ       0.434600
      7 N7          -0.5830    -0.9180    -0.6610 nu         1 LMZ      -0.801200
      8 C8           0.1320    -1.2980     0.5890 c3         1 LMZ       0.176800
      9 C9          -0.4360    -0.5310     1.8190 c3         1 LMZ       0.127300
     10 O9          -0.7470     0.8150     1.4050 oh         1 LMZ      -0.697000
     11 C10          0.5380    -0.5320     3.0470 c3         1 LMZ       0.099300
     12 O10          0.8610    -1.8950     3.4060 oh         1 LMZ      -0.710000
     13 C11         -0.0100     0.2470     4.2950 c3         1 LMZ       0.143300
     14 O11         -0.3380     1.5950     3.9030 oh         1 LMZ      -0.681000
     15 C12          1.0000     0.2700     5.4880 c3         1 LMZ       0.132600
     16 O12          0.4210     0.8690     6.6640 oh         1 LMZ      -0.703000
     17 N5          -1.6240    -1.1800    -3.2910 ne         1 LMZ      -0.016300
     18 O52         -2.6000    -0.7260    -3.9030 o          1 LMZ      -0.215300
     19 O4          -0.2720     0.5000    -5.2170 o          1 LMZ      -0.488000
     20 O2           2.4350     2.2090    -2.0590 o          1 LMZ      -0.539000
     21 HN1          1.2690     0.7540    -0.5000 hn         1 LMZ       0.458000
     22 HN3          1.4890     1.8960    -4.3060 hn         1 LMZ       0.348500
     23 HN7         -1.3320    -1.5500    -0.9600 hn         1 LMZ       0.559000
     24 H81          1.2080    -1.1010     0.4980 h1         1 LMZ       0.063200
     25 H82          0.0260    -2.3780     0.7650 h1         1 LMZ       0.063200
     26 H9          -1.3650    -1.0410     2.1170 h1         1 LMZ       0.104700
     27 HO9         -1.0480     0.7110     0.4670 ho         1 LMZ       0.506000
     28 H10          1.4590    -0.0230     2.7290 h1         1 LMZ       0.072700
     29 HO10         0.0640    -2.3120     3.8100 ho         1 LMZ       0.511000
     30 H11         -0.9200    -0.2670     4.6380 h1         1 LMZ       0.083700
     31 HO11        -0.5670     1.5200     2.9330 ho         1 LMZ       0.506000
     32 H121         1.9000     0.8210     5.1820 h1         1 LMZ       0.026200
     33 H122         1.3110    -0.7580     5.7180 h1         1 LMZ       0.026200
     34 HO12         1.1360     0.9310     7.3390 ho         1 LMZ       0.508000
@<TRIPOS>BOND
     1     1     2 1   
     2     1     6 1   
     3     1    21 1   
     4     2     3 1   
     5     2    20 2   
     6     3     4 1   
     7     3    22 1   
     8     4     5 1   
     9     4    19 2   
    10     5     6 2   
    11     5    17 1   
    12     6     7 1   
    13     7     8 1   
    14     7    23 1   
    15     8     9 1   
    16     8    24 1   
    17     8    25 1   
    18     9    10 1   
    19     9    11 1   
    20     9    26 1   
    21    10    27 1   
    22    11    12 1   
    23    11    13 1   
    24    11    28 1   
    25    12    29 1   
    26    13    14 1   
    27    13    15 1   
    28    13    30 1   
    29    14    31 1   
    30    15    16 1   
    31    15    32 1   
    32    15    33 1   
    33    16    34 1   
    34    17    18 2   
@<TRIPOS>SUBSTRUCTURE
     1 LMZ         1 TEMP              0 ****  ****    0 ROOT
