@<TRIPOS>MOLECULE
LN0
   59    60     1     0     0
SMALL
No Charge or Current Charge


@<TRIPOS>ATOM
      1 C4           1.8870     0.1600     0.3270 c6         1 LN0       0.156300
      2 C14         -4.5070    -0.7590    -1.3230 c5         1 LN0       0.183800
      3 C5           4.2920    -0.2610     0.2110 c6         1 LN0       0.285300
      4 C6           4.6960     1.6160    -1.8890 c3         1 LN0       0.044900
      5 C11         -2.7250     0.4290    -0.3700 c5         1 LN0       0.115500
      6 C7           0.8800     1.2770     0.7440 c3         1 LN0       0.023700
      7 C8           1.4160     2.6960     0.4330 c          1 LN0       0.580100
      8 C9           2.0340     3.4720     1.5970 c3         1 LN0      -0.193100
      9 C12         -4.0420     0.9830     0.2750 c5         1 LN0      -0.080400
     10 C13         -5.1150    -0.1010    -0.0600 c5         1 LN0      -0.071700
     11 N1          -0.4490     1.1010     0.0990 ns         1 LN0      -0.504900
     12 N2          -3.1180    -0.9320    -0.8570 n3         1 LN0      -0.729600
     13 C3           1.5940    -1.2310     0.9800 c6         1 LN0       0.155300
     14 C18         -9.0440    -0.0390    -0.6430 c3         1 LN0      -0.089100
     15 C16         -6.5530     0.4540    -0.2210 c3         1 LN0      -0.068400
     16 C15         -2.1880    -1.5600    -1.8180 c3         1 LN0       0.172100
     17 O8           1.3140     3.2020    -0.6810 o          1 LN0      -0.532100
     18 O5           3.2260     0.6020     0.6740 os         1 LN0      -0.432000
     19 O7           1.6090    -1.1780     2.4220 oh         1 LN0      -0.709000
     20 C2           2.6800    -2.2410     0.5030 c6         1 LN0       0.136300
     21 O6           2.4970    -3.5200     1.1410 oh         1 LN0      -0.669000
     22 C1           4.1140    -1.7030     0.8060 c6         1 LN0       0.118300
     23 O4           5.1060    -2.6480     0.3290 oh         1 LN0      -0.709000
     24 S1           4.3750    -0.1910    -1.6450 ss         1 LN0      -0.459000
     25 H1           1.8200     0.0620    -0.7660 h1         1 LN0       0.070700
     26 H2          -4.9860    -1.7170    -1.5660 h1         1 LN0       0.036700
     27 H3          -4.5690    -0.1010    -2.2030 h1         1 LN0       0.036700
     28 H4           5.2500     0.1450     0.5700 h2         1 LN0       0.092700
     29 H5           4.7970     1.8330    -2.9600 h1         1 LN0       0.066033
     30 H6           3.8620     2.2030    -1.4830 h1         1 LN0       0.066033
     31 H7           5.6220     1.9050    -1.3760 h1         1 LN0       0.066033
     32 H8          -2.4590     1.0660    -1.2260 h1         1 LN0       0.033700
     33 H9           0.7560     1.2280     1.8330 h1         1 LN0       0.106700
     34 H10          2.8100     2.8620     2.0710 hc         1 LN0       0.068700
     35 H11          2.4100     4.4560     1.2950 hc         1 LN0       0.068700
     36 H12          1.2880     3.5580     2.3950 hc         1 LN0       0.068700
     37 H13         -3.9610     1.1360     1.3570 hc         1 LN0       0.055700
     38 H14         -4.2950     1.9560    -0.1610 hc         1 LN0       0.055700
     39 H15         -5.1540    -0.8410     0.7500 hc         1 LN0       0.077700
     40 H16         -0.5710     1.4480    -0.8470 hn         1 LN0       0.314500
     41 H18          0.6140    -1.5840     0.6260 h1         1 LN0       0.051700
     42 H19         -9.7660    -0.8360    -0.8610 hc         1 LN0       0.031700
     43 H20         -9.3430     0.4460     0.2940 hc         1 LN0       0.031700
     44 H21         -9.0970     0.7010    -1.4500 hc         1 LN0       0.031700
     45 H22         -7.6100    -1.3810     0.2620 hc         1 LN0       0.039200
     46 H23         -7.3730    -1.1300    -1.4670 hc         1 LN0       0.039200
     47 H24         -6.8400     0.9780     0.6990 hc         1 LN0       0.039200
     48 H25         -6.5690     1.2050    -1.0210 hc         1 LN0       0.039200
     49 H26         -1.1890    -1.6700    -1.3750 h1         1 LN0       0.030700
     50 H27         -2.5460    -2.5590    -2.1030 h1         1 LN0       0.030700
     51 H28         -2.0980    -0.9540    -2.7290 h1         1 LN0       0.030700
     52 H29          1.7150    -2.1200     2.6980 ho         1 LN0       0.524000
     53 H30          2.5820    -2.3540    -0.5880 h1         1 LN0       0.065700
     54 H31          3.3430    -4.0010     0.9790 ho         1 LN0       0.470000
     55 H32          4.2100    -1.6030     1.8980 h1         1 LN0       0.066700
     56 H33          5.9970    -2.2580     0.4920 ho         1 LN0       0.516000
     57 C10         -1.5370     0.4650     0.6690 c          1 LN0       0.601100
     58 C17         -7.6220    -0.6200    -0.5280 c3         1 LN0      -0.075400
     59 O9          -1.5300     0.0300     1.8140 o          1 LN0      -0.576100
@<TRIPOS>BOND
     1     1     6 1   
     2     1    13 1   
     3     1    18 1   
     4     1    25 1   
     5     2    10 1   
     6     2    12 1   
     7     2    26 1   
     8     2    27 1   
     9     3    18 1   
    10     3    22 1   
    11     3    24 1   
    12     3    28 1   
    13     4    24 1   
    14     4    29 1   
    15     4    30 1   
    16     4    31 1   
    17     5     9 1   
    18     5    12 1   
    19     5    32 1   
    20     5    57 1   
    21     6     7 1   
    22     6    11 1   
    23     6    33 1   
    24     7     8 1   
    25     7    17 2   
    26     8    34 1   
    27     8    35 1   
    28     8    36 1   
    29     9    10 1   
    30     9    37 1   
    31     9    38 1   
    32    10    15 1   
    33    10    39 1   
    34    11    40 1   
    35    11    57 1   
    36    12    16 1   
    37    13    19 1   
    38    13    20 1   
    39    13    41 1   
    40    14    42 1   
    41    14    43 1   
    42    14    44 1   
    43    14    58 1   
    44    15    47 1   
    45    15    48 1   
    46    15    58 1   
    47    16    49 1   
    48    16    50 1   
    49    16    51 1   
    50    19    52 1   
    51    20    21 1   
    52    20    22 1   
    53    20    53 1   
    54    21    54 1   
    55    22    23 1   
    56    22    55 1   
    57    23    56 1   
    58    45    58 1   
    59    46    58 1   
    60    57    59 2   
@<TRIPOS>SUBSTRUCTURE
     1 LN0         1 TEMP              0 ****  ****    0 ROOT
