@<TRIPOS>MOLECULE
LN0
   59    60     1     0     0
SMALL
bcc


@<TRIPOS>ATOM
      1 C4           1.9820    -0.1390     0.0760 c6         1 LN0       0.133100
      2 C14         -5.0830    -1.0940     0.2060 c5         1 LN0       0.183800
      3 C5           4.2430     0.5900     0.0290 c6         1 LN0       0.214200
      4 C6           3.6700     3.0560    -1.0780 c3         1 LN0      -0.003000
      5 C11         -2.7480    -0.9820    -0.0680 c5         1 LN0       0.115500
      6 C7           0.7210     0.1240     0.9030 c3         1 LN0       0.023700
      7 C8           0.4890     1.6400     0.9940 c          1 LN0       0.580100
      8 C9           0.8500     2.2970     2.2880 c3         1 LN0      -0.193100
      9 C12         -3.4030     0.1570    -0.8810 c5         1 LN0      -0.080400
     10 C13         -4.7900     0.3260    -0.2590 c5         1 LN0      -0.071700
     11 N1          -0.3980    -0.5210     0.2700 ns         1 LN0      -0.571900
     12 N2          -3.8130    -1.5380     0.7370 n3         1 LN0      -0.729600
     13 C3           2.3650    -1.6120     0.0060 c6         1 LN0       0.132100
     14 C18         -8.1870     1.7390    -1.5610 c3         1 LN0      -0.089100
     15 C16         -5.8180     0.9110    -1.2150 c3         1 LN0      -0.068400
     16 C15         -3.7030    -2.9480     1.0040 c3         1 LN0       0.172100
     17 O8           0.0220     2.2330     0.0510 o          1 LN0      -0.532100
     18 O5           3.0050     0.6240     0.6770 os         1 LN0      -0.385600
     19 O7           2.4720    -2.1120     1.3120 oh         1 LN0      -0.586800
     20 C2           3.6780    -1.7310    -0.7640 c6         1 LN0       0.113100
     21 O6           4.0470    -3.0880    -0.7590 oh         1 LN0      -0.606800
     22 C1           4.7470    -0.8530    -0.1260 c6         1 LN0       0.095100
     23 O4           5.8940    -0.9310    -0.9290 oh         1 LN0      -0.586800
     24 S1           4.2310     1.4190    -1.6000 ss         1 LN0      -0.363200
     25 H1           1.8050     0.2120    -0.9510 h1         1 LN0       0.070700
     26 H2          -5.8580    -1.1510     0.9750 h1         1 LN0       0.036700
     27 H3          -5.4270    -1.7030    -0.6500 h1         1 LN0       0.036700
     28 H4           4.9210     1.1530     0.6750 h2         1 LN0       0.092700
     29 H5           3.7800     3.7200    -1.9320 h1         1 LN0       0.066033
     30 H6           2.6260     3.0510    -0.7740 h1         1 LN0       0.066033
     31 H7           4.2850     3.4350    -0.2630 h1         1 LN0       0.066033
     32 H8          -2.3190    -1.7250    -0.7570 h1         1 LN0       0.033700
     33 H9           0.8620    -0.2780     1.9100 h1         1 LN0       0.106700
     34 H10          1.8470     2.0020     2.6130 hc         1 LN0       0.068700
     35 H11          0.7900     3.3810     2.2190 hc         1 LN0       0.068700
     36 H12          0.1530     1.9500     3.0530 hc         1 LN0       0.068700
     37 H13         -2.8170     1.0780    -0.8840 hc         1 LN0       0.055700
     38 H14         -3.5030    -0.1600    -1.9220 hc         1 LN0       0.055700
     39 H15         -4.7150     0.9710     0.6240 hc         1 LN0       0.077700
     40 H16         -0.3020    -0.8690    -0.6710 hn         1 LN0       0.314500
     41 H18          1.5930    -2.1480    -0.5650 h1         1 LN0       0.051700
     42 H19         -9.1690     1.8650    -1.1040 hc         1 LN0       0.031700
     43 H20         -7.8400     2.7250    -1.8760 hc         1 LN0       0.031700
     44 H21         -8.3160     1.1350    -2.4610 hc         1 LN0       0.031700
     45 H22         -7.1160     1.7040     0.3040 hc         1 LN0       0.039200
     46 H23         -7.5920     0.1230    -0.2750 hc         1 LN0       0.039200
     47 H24         -5.4580     1.8810    -1.5750 hc         1 LN0       0.039200
     48 H25         -5.8920     0.2670    -2.0990 hc         1 LN0       0.039200
     49 H26         -2.7480    -3.1710     1.4840 h1         1 LN0       0.030700
     50 H27         -4.4910    -3.2620     1.6900 h1         1 LN0       0.030700
     51 H28         -3.7750    -3.5710     0.1000 h1         1 LN0       0.030700
     52 H29          2.8090    -3.0140     1.2630 ho         1 LN0       0.425000
     53 H30          3.4950    -1.3790    -1.7900 h1         1 LN0       0.065700
     54 H31          4.9090    -3.1730    -1.1810 ho         1 LN0       0.431000
     55 H32          4.9450    -1.2300     0.8870 h1         1 LN0       0.066700
     56 H33          6.6430    -0.5690    -0.4450 ho         1 LN0       0.417000
     57 C10         -1.6320    -0.4300     0.8050 c          1 LN0       0.668100
     58 C17         -7.2000     1.0920    -0.5990 c3         1 LN0      -0.075400
     59 O9          -1.8250     0.1050     1.8840 o          1 LN0      -0.576100
@<TRIPOS>BOND
     1     1     6 1   
     2     1    13 1   
     3     1    18 1   
     4     1    25 1   
     5     2    10 1   
     6     2    12 1   
     7     2    26 1   
     8     2    27 1   
     9     3    18 1   
    10     3    22 1   
    11     3    24 1   
    12     3    28 1   
    13     4    24 1   
    14     4    29 1   
    15     4    30 1   
    16     4    31 1   
    17     5     9 1   
    18     5    12 1   
    19     5    32 1   
    20     5    57 1   
    21     6     7 1   
    22     6    11 1   
    23     6    33 1   
    24     7     8 1   
    25     7    17 2   
    26     8    34 1   
    27     8    35 1   
    28     8    36 1   
    29     9    10 1   
    30     9    37 1   
    31     9    38 1   
    32    10    15 1   
    33    10    39 1   
    34    11    40 1   
    35    11    57 1   
    36    12    16 1   
    37    13    19 1   
    38    13    20 1   
    39    13    41 1   
    40    14    42 1   
    41    14    43 1   
    42    14    44 1   
    43    14    58 1   
    44    15    47 1   
    45    15    48 1   
    46    15    58 1   
    47    16    49 1   
    48    16    50 1   
    49    16    51 1   
    50    19    52 1   
    51    20    21 1   
    52    20    22 1   
    53    20    53 1   
    54    21    54 1   
    55    22    23 1   
    56    22    55 1   
    57    23    56 1   
    58    45    58 1   
    59    46    58 1   
    60    57    59 2   
@<TRIPOS>SUBSTRUCTURE
     1 LN0         1 TEMP              0 ****  ****    0 ROOT
