@<TRIPOS>MOLECULE
LN1
   55    57     1     0     0
SMALL
No Charge or Current Charge


@<TRIPOS>ATOM
      1 O8          -4.7810     2.9060     2.0390 o          1 LN1      -0.586100
      2 C7          -4.2360     2.2100     1.1850 c          1 LN1       0.642100
      3 C6          -4.2160     0.7310     1.2150 cc         1 LN1      -0.235200
      4 C9          -4.7940    -0.0810     2.2450 cc         1 LN1      -0.197000
      5 CG          -4.5610    -1.3880     1.9200 cd         1 LN1      -0.149000
      6 CD1         -4.9780    -2.5610     2.6070 cd         1 LN1      -0.083000
      7 CE1         -4.6510    -3.7380     1.9690 cc         1 LN1      -0.132000
      8 CZ          -3.9830    -3.7230     0.6860 cc         1 LN1      -0.173000
      9 CE2         -3.5970    -2.5560     0.0260 cd         1 LN1      -0.084000
     10 ND2         -3.8340    -1.3770     0.7480 na         1 LN1       0.123100
     11 C5          -3.6150    -0.0740     0.2690 cd         1 LN1       0.175900
     12 N4          -2.9500     0.3140    -0.8800 nu         1 LN1      -0.835200
     13 C3          -1.6700    -0.2760    -1.4200 c3         1 LN1       0.093500
     14 C3A         -1.8540    -0.8800    -2.8690 c          1 LN1       0.705000
     15 O3A         -1.4570    -2.0200    -3.0680 o          1 LN1      -0.709500
     16 O3B         -2.4470    -0.2260    -3.7180 o          1 LN1      -0.709500
     17 C2          -0.4290     0.7080    -1.3570 c3         1 LN1       0.066300
     18 S1           0.0870     1.1350     0.4140 s4         1 LN1       0.435500
     19 O12          0.2080    -0.4800     0.9170 oh         1 LN1      -0.608800
     20 O13         -1.0670     1.8020     1.1240 o          1 LN1      -0.530000
     21 CG2         -0.7350     2.0660    -2.0600 c3         1 LN1      -0.070100
     22 CG1          0.8070     0.0500    -2.0470 c3         1 LN1       0.171600
     23 OAV          1.9760     0.8600    -1.8020 os         1 LN1      -0.477100
     24 CAX          3.1720     0.4400    -2.3210 c          1 LN1       0.592100
     25 OAD          3.3290    -0.6130    -2.9220 o          1 LN1      -0.469000
     26 CAS          4.3160     1.3710    -1.9190 c3         1 LN1      -0.096100
     27 CAY          5.0100     0.8510    -0.6650 ca         1 LN1      -0.060300
     28 CAQ          4.5100     1.1840     0.6090 ca         1 LN1      -0.107000
     29 CAM          6.1490     0.0270    -0.7690 ca         1 LN1      -0.088000
     30 CAN          6.7850    -0.4590     0.3880 ca         1 LN1      -0.158000
     31 CAZ          6.2840    -0.1240     1.6570 ca         1 LN1       0.041100
     32 OAH          6.9000    -0.5950     2.7860 oh         1 LN1      -0.562100
     33 CBA          5.1440     0.6980     1.7640 ca         1 LN1       0.118100
     34 OAI          4.6620     1.0170     3.0000 oh         1 LN1      -0.539100
     35 H7          -3.7210     2.6800     0.3170 h4         1 LN1       0.008200
     36 H9          -5.3350     0.2910     3.1140 ha         1 LN1       0.201000
     37 HD1         -5.5250    -2.5350     3.5440 ha         1 LN1       0.109000
     38 HE1         -4.9240    -4.6930     2.4060 ha         1 LN1       0.101000
     39 HZ          -3.7950    -4.6820     0.2110 ha         1 LN1       0.117000
     40 HE2         -3.1390    -2.5020    -0.9500 h4         1 LN1       0.167000
     41 HN4         -3.2450     1.2040    -1.2860 hn         1 LN1       0.515000
     42 H3          -1.4140    -1.1410    -0.7980 h1         1 LN1       0.053700
     43 HO12         1.0680    -0.7970     0.5750 ho         1 LN1       0.461000
     44 HG2         -1.5790     2.5810    -1.5880 hc         1 LN1       0.045367
     45 HG2A         0.1280     2.7400    -2.0020 hc         1 LN1       0.045367
     46 HG2B        -0.9710     1.9250    -3.1210 hc         1 LN1       0.045367
     47 HG1          0.9530    -0.9670    -1.6570 h1         1 LN1       0.083700
     48 HG1A         0.6280    -0.0360    -3.1270 h1         1 LN1       0.083700
     49 HAS          5.0310     1.4280    -2.7470 hc         1 LN1       0.075200
     50 HASA         3.9100     2.3690    -1.7150 hc         1 LN1       0.075200
     51 HAQ          3.6300     1.8160     0.7050 ha         1 LN1       0.129000
     52 HAM          6.5410    -0.2400    -1.7480 ha         1 LN1       0.120000
     53 HAN          7.6630    -1.0940     0.2900 ha         1 LN1       0.110000
     54 HOAH         7.6700    -1.1460     2.5210 ho         1 LN1       0.471000
     55 HOAI         5.2600     0.5720     3.6420 ho         1 LN1       0.477000
@<TRIPOS>BOND
     1     1     2 2   
     2     2     3 1   
     3     2    35 1   
     4     3     4 1   
     5     3    11 2   
     6     4     5 2   
     7     4    36 1   
     8     5     6 1   
     9     5    10 1   
    10     6     7 2   
    11     6    37 1   
    12     7     8 1   
    13     7    38 1   
    14     8     9 2   
    15     8    39 1   
    16     9    10 1   
    17     9    40 1   
    18    10    11 1   
    19    11    12 1   
    20    12    13 1   
    21    12    41 1   
    22    13    14 1   
    23    13    17 1   
    24    13    42 1   
    25    14    15 1   
    26    14    16 1   
    27    17    18 1   
    28    17    21 1   
    29    17    22 1   
    30    18    19 1   
    31    18    20 2   
    32    19    43 1   
    33    21    44 1   
    34    21    45 1   
    35    21    46 1   
    36    22    23 1   
    37    22    47 1   
    38    22    48 1   
    39    23    24 1   
    40    24    25 2   
    41    24    26 1   
    42    26    27 1   
    43    26    49 1   
    44    26    50 1   
    45    27    28 ar  
    46    27    29 ar  
    47    28    33 ar  
    48    28    51 1   
    49    29    30 ar  
    50    29    52 1   
    51    30    31 ar  
    52    30    53 1   
    53    31    32 1   
    54    31    33 ar  
    55    32    54 1   
    56    33    34 1   
    57    34    55 1   
@<TRIPOS>SUBSTRUCTURE
     1 LN1         1 TEMP              0 ****  ****    0 ROOT
