@<TRIPOS>MOLECULE
LN1
   55    57     1     0     0
SMALL
abcg2


@<TRIPOS>ATOM
      1 O8          -5.1550     3.2160     0.7980 o          1 LN1      -0.586100
      2 C7          -4.5860     2.3460     0.1660 c          1 LN1       0.642100
      3 C6          -4.6680     0.9350     0.4760 cc         1 LN1      -0.235200
      4 C9          -5.4240     0.3330     1.5060 cc         1 LN1      -0.197000
      5 CG          -5.1960    -1.0210     1.4310 cd         1 LN1      -0.149000
      6 CD1         -5.6430    -2.1380     2.1800 cd         1 LN1      -0.083000
      7 CE1         -5.2630    -3.3930     1.8260 cc         1 LN1      -0.132000
      8 CZ          -4.4330    -3.5830     0.6810 cc         1 LN1      -0.173000
      9 CE2         -3.9930    -2.5250    -0.0330 cd         1 LN1      -0.084000
     10 ND2         -4.3350    -1.2500     0.3470 na         1 LN1       0.123100
     11 C5          -3.9850    -0.0550    -0.2210 cd         1 LN1       0.175900
     12 N4          -3.1270     0.0830    -1.2870 nu         1 LN1      -0.835200
     13 C3          -1.8230    -0.5360    -1.3610 c3         1 LN1       0.093500
     14 C3A         -1.6470    -1.1560    -2.7850 c          1 LN1       0.705000
     15 O3A         -0.7900    -2.0500    -2.8910 o          1 LN1      -0.709500
     16 O3B         -2.3850    -0.7050    -3.6800 o          1 LN1      -0.709500
     17 C2          -0.6700     0.4580    -1.0580 c3         1 LN1       0.066300
     18 S1          -0.7750     1.1940     0.6590 s4         1 LN1       0.435500
     19 O12         -1.3880    -0.1530     1.3800 oh         1 LN1      -0.608800
     20 O13         -1.8070     2.2590     0.6520 o          1 LN1      -0.530000
     21 CG2         -0.6740     1.6400    -2.0180 c3         1 LN1      -0.070100
     22 CG1          0.6730    -0.2710    -1.0550 c3         1 LN1       0.171600
     23 OAV          1.6780     0.6740    -0.6760 os         1 LN1      -0.477100
     24 CAX          2.9330     0.2520    -0.5900 c          1 LN1       0.592100
     25 OAD          3.2700    -0.8840    -0.8010 o          1 LN1      -0.469000
     26 CAS          3.8560     1.3840    -0.2090 c3         1 LN1      -0.096100
     27 CAY          5.2620     0.9260     0.0340 ca         1 LN1      -0.060300
     28 CAQ          5.6700     0.5660     1.3160 ca         1 LN1      -0.107000
     29 CAM          6.1720     0.8300    -1.0090 ca         1 LN1      -0.088000
     30 CAN          7.4660     0.3810    -0.7770 ca         1 LN1      -0.158000
     31 CAZ          7.8670     0.0210     0.4990 ca         1 LN1       0.041100
     32 OAH          9.1070    -0.4220     0.8140 oh         1 LN1      -0.562100
     33 CBA          6.9570     0.1170     1.5600 ca         1 LN1       0.118100
     34 OAI          7.3050    -0.2180     2.8210 oh         1 LN1      -0.539100
     35 H7          -3.9850     2.5940    -0.7210 h4         1 LN1       0.008200
     36 H9          -6.0550     0.8270     2.2280 ha         1 LN1       0.201000
     37 HD1         -6.2900    -1.9600     3.0280 ha         1 LN1       0.109000
     38 HE1         -5.5960    -4.2500     2.3950 ha         1 LN1       0.101000
     39 HZ          -4.1580    -4.5780     0.3600 ha         1 LN1       0.117000
     40 HE2         -3.3930    -2.6280    -0.9240 h4         1 LN1       0.167000
     41 HN4         -3.5420     0.1800    -2.2050 hn         1 LN1       0.515000
     42 H3          -1.7290    -1.3570    -0.6470 h1         1 LN1       0.053700
     43 HO12        -1.0640    -0.1850     2.2910 ho         1 LN1       0.461000
     44 HG2         -1.6640     2.0900    -2.0670 hc         1 LN1       0.045367
     45 HG2A         0.0380     2.4170    -1.7390 hc         1 LN1       0.045367
     46 HG2B        -0.4070     1.3010    -3.0190 hc         1 LN1       0.045367
     47 HG1          0.6630    -1.1110    -0.3550 h1         1 LN1       0.083700
     48 HG1A         0.8890    -0.6630    -2.0470 h1         1 LN1       0.083700
     49 HAS          3.8210     2.1260    -1.0130 hc         1 LN1       0.075200
     50 HASA         3.4450     1.8840     0.6720 hc         1 LN1       0.075200
     51 HAQ          4.9760     0.6320     2.1470 ha         1 LN1       0.129000
     52 HAM          5.8790     1.1060    -2.0140 ha         1 LN1       0.120000
     53 HAN          8.1700     0.3140    -1.5990 ha         1 LN1       0.110000
     54 HOAH         9.6570    -0.4890     0.0260 ho         1 LN1       0.471000
     55 HOAI         8.2150    -0.5350     2.8470 ho         1 LN1       0.477000
@<TRIPOS>BOND
     1     1     2 2   
     2     2     3 1   
     3     2    35 1   
     4     3     4 1   
     5     3    11 2   
     6     4     5 2   
     7     4    36 1   
     8     5     6 1   
     9     5    10 1   
    10     6     7 2   
    11     6    37 1   
    12     7     8 1   
    13     7    38 1   
    14     8     9 2   
    15     8    39 1   
    16     9    10 1   
    17     9    40 1   
    18    10    11 1   
    19    11    12 1   
    20    12    13 1   
    21    12    41 1   
    22    13    14 1   
    23    13    17 1   
    24    13    42 1   
    25    14    15 1   
    26    14    16 1   
    27    17    18 1   
    28    17    21 1   
    29    17    22 1   
    30    18    19 1   
    31    18    20 2   
    32    19    43 1   
    33    21    44 1   
    34    21    45 1   
    35    21    46 1   
    36    22    23 1   
    37    22    47 1   
    38    22    48 1   
    39    23    24 1   
    40    24    25 2   
    41    24    26 1   
    42    26    27 1   
    43    26    49 1   
    44    26    50 1   
    45    27    28 ar  
    46    27    29 ar  
    47    28    33 ar  
    48    28    51 1   
    49    29    30 ar  
    50    29    52 1   
    51    30    31 ar  
    52    30    53 1   
    53    31    32 1   
    54    31    33 ar  
    55    32    54 1   
    56    33    34 1   
    57    34    55 1   
@<TRIPOS>SUBSTRUCTURE
     1 LN1         1 TEMP              0 ****  ****    0 ROOT
