@<TRIPOS>MOLECULE
LN2
   60    63     1     0     0
SMALL
abcg2


@<TRIPOS>ATOM
      1 O1          -1.7480     1.7140     8.8740 o          1 LN2      -0.629100
      2 O2          -1.3570     1.9680    12.9730 o          1 LN2      -0.721500
      3 O3          -1.1100     3.7690    11.6720 o          1 LN2      -0.721500
      4 O4           2.1450     3.1800     5.9580 o          1 LN2      -0.557000
      5 C2          -3.5890     8.2280    13.2200 ca         1 LN2      -0.198600
      6 O           -1.9320     7.5500    14.7410 o          1 LN2      -0.497100
      7 C24          1.3610     2.2560     5.8290 c          1 LN2       0.575600
      8 C23          1.4400     1.1300     4.8760 ca         1 LN2      -0.160600
      9 C22          2.4140     0.8440     3.9320 ca         1 LN2      -0.043000
     10 C21          2.2380    -0.2850     3.1450 ca         1 LN2      -0.134000
     11 C20          1.1130    -1.0950     3.3080 ca         1 LN2      -0.096000
     12 C19          0.1440    -0.7990     4.2600 ca         1 LN2      -0.104000
     13 C18          0.3240     0.3290     5.0410 ca         1 LN2      -0.075300
     14 C17         -0.5320     0.8900     6.1300 c5         1 LN2       0.141300
     15 N1           0.2180     2.0630     6.5430 n          1 LN2      -0.403800
     16 C12         -0.2770     3.0260     7.5020 c3         1 LN2       0.033700
     17 C13         -0.6790     2.3050     8.7920 c          1 LN2       0.594100
     18 N            0.2330     2.3300     9.7640 ns         1 LN2      -0.440900
     19 C14          0.0150     1.7380    11.0670 c3         1 LN2      -0.045300
     20 C16         -0.9190     2.5810    11.9800 c          1 LN2       0.721000
     21 C15          1.3620     1.5300    11.7520 c3         1 LN2      -0.082100
     22 C11         -1.4430     3.8440     6.9300 c3         1 LN2      -0.031100
     23 C10         -2.0250     4.7970     7.9350 ca         1 LN2      -0.067300
     24 C9          -1.2690     5.8440     8.4560 ca         1 LN2      -0.088000
     25 C8          -1.7960     6.6960     9.4160 ca         1 LN2      -0.073000
     26 C25         -3.3310     4.6390     8.3900 ca         1 LN2      -0.088000
     27 C26         -3.8680     5.4960     9.3360 ca         1 LN2      -0.073000
     28 C7          -3.1010     6.5270     9.8720 cp         1 LN2      -0.034000
     29 C6          -3.6450     7.3950    10.9360 cp         1 LN2      -0.069000
     30 C5          -4.7600     8.1990    10.7230 ca         1 LN2       0.193000
     31 F           -5.3220     8.2020     9.5100 f          1 LN2      -0.179000
     32 C4          -5.3030     9.0020    11.7060 ca         1 LN2      -0.186000
     33 C3          -4.7130     9.0090    12.9590 ca         1 LN2      -0.061000
     34 C27         -3.0690     7.4310    12.1990 ca         1 LN2      -0.004000
     35 C           -3.5550     9.0150    15.6650 c3         1 LN2      -0.194100
     36 H2           3.2830     1.4790     3.8130 ha         1 LN2       0.129000
     37 H3           2.9750    -0.5420     2.3960 ha         1 LN2       0.108000
     38 H4           0.9950    -1.9700     2.6820 ha         1 LN2       0.106000
     39 H5          -0.7240    -1.4360     4.3780 ha         1 LN2       0.119000
     40 H6          -1.5300     1.1530     5.7700 h1         1 LN2       0.079700
     41 H7          -0.6550     0.1780     6.9490 h1         1 LN2       0.079700
     42 H8           0.5530     3.7060     7.7020 h1         1 LN2       0.082700
     43 H9           1.0480     2.9110     9.6430 hn         1 LN2       0.299500
     44 H10         -0.4490     0.7600    10.9170 h1         1 LN2       0.057700
     45 H11          1.2240     1.0380    12.7130 hc         1 LN2       0.023033
     46 H12          2.0230     0.9080    11.1470 hc         1 LN2       0.023033
     47 H13          1.8650     2.4820    11.9320 hc         1 LN2       0.023033
     48 H14         -1.0620     4.3930     6.0640 hc         1 LN2       0.046200
     49 H15         -2.2260     3.1800     6.5620 hc         1 LN2       0.046200
     50 H16         -0.2530     6.0020     8.1120 ha         1 LN2       0.108000
     51 H17         -1.1880     7.4990     9.8130 ha         1 LN2       0.107500
     52 H18         -3.9370     3.8310     8.0010 ha         1 LN2       0.108000
     53 H19         -4.8810     5.3380     9.6830 ha         1 LN2       0.107500
     54 H20         -6.1690     9.6130    11.4930 ha         1 LN2       0.121000
     55 H21         -5.1450     9.6360    13.7270 ha         1 LN2       0.105000
     56 H22         -2.2110     6.8000    12.3920 ha         1 LN2       0.178000
     57 H23         -2.9880     8.8910    16.5840 hc         1 LN2       0.054033
     58 H24         -3.5800    10.0750    15.4070 hc         1 LN2       0.054033
     59 H25         -4.5870     8.7060    15.8410 hc         1 LN2       0.054033
     60 C1          -2.9350     8.2070    14.5580 c          1 LN2       0.577700
@<TRIPOS>BOND
     1     1    17 2   
     2     2    20 1   
     3     3    20 1   
     4     4     7 2   
     5     5    33 ar  
     6     5    34 ar  
     7     5    60 1   
     8     6    60 2   
     9     7     8 1   
    10     7    15 1   
    11     8     9 ar  
    12     8    13 ar  
    13     9    10 ar  
    14     9    36 1   
    15    10    11 ar  
    16    10    37 1   
    17    11    12 ar  
    18    11    38 1   
    19    12    13 ar  
    20    12    39 1   
    21    13    14 1   
    22    14    15 1   
    23    14    40 1   
    24    14    41 1   
    25    15    16 1   
    26    16    17 1   
    27    16    22 1   
    28    16    42 1   
    29    17    18 1   
    30    18    19 1   
    31    18    43 1   
    32    19    20 1   
    33    19    21 1   
    34    19    44 1   
    35    21    45 1   
    36    21    46 1   
    37    21    47 1   
    38    22    23 1   
    39    22    48 1   
    40    22    49 1   
    41    23    24 ar  
    42    23    26 ar  
    43    24    25 ar  
    44    24    50 1   
    45    25    28 ar  
    46    25    51 1   
    47    26    27 ar  
    48    26    52 1   
    49    27    28 ar  
    50    27    53 1   
    51    28    29 1   
    52    29    30 ar  
    53    29    34 ar  
    54    30    31 1   
    55    30    32 ar  
    56    32    33 ar  
    57    32    54 1   
    58    33    55 1   
    59    34    56 1   
    60    35    57 1   
    61    35    58 1   
    62    35    59 1   
    63    35    60 1   
@<TRIPOS>SUBSTRUCTURE
     1 LN2         1 TEMP              0 ****  ****    0 ROOT
