@<TRIPOS>MOLECULE
LN2
   60    63     1     0     0
SMALL
No Charge or Current Charge


@<TRIPOS>ATOM
      1 O1          -0.8740     0.5690     8.8130 o          1 LN2      -0.629100
      2 O2          -2.5880     2.8840    12.9170 o          1 LN2      -0.721500
      3 O3          -0.9090     4.1170    12.3660 o          1 LN2      -0.721500
      4 O4           2.1870     3.1880     6.2190 o          1 LN2      -0.557000
      5 C2          -3.1520     8.4890    13.1290 ca         1 LN2      -0.198600
      6 O           -0.9960     8.5720    14.1520 o          1 LN2      -0.497100
      7 C24          1.4810     2.2530     5.8660 c          1 LN2       0.575600
      8 C23          1.7370     1.3290     4.7470 ca         1 LN2      -0.160600
      9 C22          2.8230     1.2910     3.8600 ca         1 LN2      -0.043000
     10 C21          2.8260     0.2980     2.8600 ca         1 LN2      -0.134000
     11 C20          1.7580    -0.6250     2.7680 ca         1 LN2      -0.096000
     12 C19          0.6790    -0.5610     3.6740 ca         1 LN2      -0.104000
     13 C18          0.6860     0.4330     4.6660 ca         1 LN2      -0.075300
     14 C17         -0.3630     0.6860     5.7400 c5         1 LN2       0.141300
     15 N1           0.2630     1.8560     6.4450 n          1 LN2      -0.403800
     16 C12         -0.3550     2.6270     7.5660 c3         1 LN2       0.033700
     17 C13         -0.6900     1.7810     8.8330 c          1 LN2       0.594100
     18 N           -0.7530     2.5040    10.0100 ns         1 LN2      -0.440900
     19 C14         -1.0390     1.9470    11.3520 c3         1 LN2      -0.045300
     20 C16         -1.5410     3.0700    12.3120 c          1 LN2       0.721000
     21 C15          0.1860     1.2060    11.9330 c3         1 LN2      -0.082100
     22 C11         -1.6020     3.4000     7.0620 c3         1 LN2      -0.031100
     23 C10         -2.1460     4.3920     8.0820 ca         1 LN2      -0.067300
     24 C9          -1.4060     5.5400     8.4190 ca         1 LN2      -0.088000
     25 C8          -1.8850     6.4310     9.3940 ca         1 LN2      -0.073000
     26 C25         -3.3760     4.1520     8.7230 ca         1 LN2      -0.088000
     27 C26         -3.8540     5.0460     9.6950 ca         1 LN2      -0.073000
     28 C7          -3.1190     6.2030    10.0500 cp         1 LN2      -0.034000
     29 C6          -3.6100     7.1450    11.1030 cp         1 LN2      -0.069000
     30 C5          -4.9470     7.6160    11.1280 ca         1 LN2       0.193000
     31 F           -5.8290     7.2450    10.1730 f          1 LN2      -0.179000
     32 C4          -5.3800     8.4990    12.1270 ca         1 LN2      -0.186000
     33 C3          -4.4930     8.9350    13.1240 ca         1 LN2      -0.061000
     34 C27         -2.7280     7.5980    12.1160 ca         1 LN2      -0.004000
     35 C           -2.6290     9.8630    15.3170 c3         1 LN2      -0.194100
     36 H2           3.6380     2.0080     3.9410 ha         1 LN2       0.129000
     37 H3           3.6530     0.2410     2.1570 ha         1 LN2       0.108000
     38 H4           1.7690    -1.3880     1.9940 ha         1 LN2       0.106000
     39 H5          -0.1440    -1.2700     3.6050 ha         1 LN2       0.119000
     40 H6          -1.3370     0.9400     5.3020 h1         1 LN2       0.079700
     41 H7          -0.4770    -0.1860     6.3960 h1         1 LN2       0.079700
     42 H8           0.3760     3.3730     7.9040 h1         1 LN2       0.082700
     43 H9          -0.6170     3.5060     9.9380 hn         1 LN2       0.299500
     44 H10         -1.8600     1.2250    11.2480 h1         1 LN2       0.057700
     45 H11         -0.0510     0.7940    12.9210 hc         1 LN2       0.023033
     46 H12          0.4880     0.3770    11.2830 hc         1 LN2       0.023033
     47 H13          1.0380     1.8880    12.0410 hc         1 LN2       0.023033
     48 H14         -1.3350     3.9400     6.1450 hc         1 LN2       0.046200
     49 H15         -2.3790     2.6800     6.7740 hc         1 LN2       0.046200
     50 H16         -0.4550     5.7410     7.9310 ha         1 LN2       0.108000
     51 H17         -1.2970     7.3120     9.6400 ha         1 LN2       0.107500
     52 H18         -3.9560     3.2650     8.4820 ha         1 LN2       0.108000
     53 H19         -4.7960     4.8300    10.1930 ha         1 LN2       0.107500
     54 H20         -6.4080     8.8510    12.1250 ha         1 LN2       0.121000
     55 H21         -4.8640     9.6220    13.8810 ha         1 LN2       0.105000
     56 H22         -1.7030     7.2310    12.1130 ha         1 LN2       0.178000
     57 H23         -1.8270    10.0990    16.0260 hc         1 LN2       0.054033
     58 H24         -3.0530    10.7750    14.8800 hc         1 LN2       0.054033
     59 H25         -3.4910     9.4120    15.8200 hc         1 LN2       0.054033
     60 C1          -2.1640     8.9390    14.1890 c          1 LN2       0.577700
@<TRIPOS>BOND
     1     1    17 2   
     2     2    20 1   
     3     3    20 1   
     4     4     7 2   
     5     5    33 ar  
     6     5    34 ar  
     7     5    60 1   
     8     6    60 2   
     9     7     8 1   
    10     7    15 1   
    11     8     9 ar  
    12     8    13 ar  
    13     9    10 ar  
    14     9    36 1   
    15    10    11 ar  
    16    10    37 1   
    17    11    12 ar  
    18    11    38 1   
    19    12    13 ar  
    20    12    39 1   
    21    13    14 1   
    22    14    15 1   
    23    14    40 1   
    24    14    41 1   
    25    15    16 1   
    26    16    17 1   
    27    16    22 1   
    28    16    42 1   
    29    17    18 1   
    30    18    19 1   
    31    18    43 1   
    32    19    20 1   
    33    19    21 1   
    34    19    44 1   
    35    21    45 1   
    36    21    46 1   
    37    21    47 1   
    38    22    23 1   
    39    22    48 1   
    40    22    49 1   
    41    23    24 ar  
    42    23    26 ar  
    43    24    25 ar  
    44    24    50 1   
    45    25    28 ar  
    46    25    51 1   
    47    26    27 ar  
    48    26    52 1   
    49    27    28 ar  
    50    27    53 1   
    51    28    29 1   
    52    29    30 ar  
    53    29    34 ar  
    54    30    31 1   
    55    30    32 ar  
    56    32    33 ar  
    57    32    54 1   
    58    33    55 1   
    59    34    56 1   
    60    35    57 1   
    61    35    58 1   
    62    35    59 1   
    63    35    60 1   
@<TRIPOS>SUBSTRUCTURE
     1 LN2         1 TEMP              0 ****  ****    0 ROOT
