@<TRIPOS>MOLECULE
LN3
  110   111     1     0     0
SMALL
No Charge or Current Charge


@<TRIPOS>ATOM
      1 C02        -18.6940    12.1590     6.7500 c          1 LN3       0.748000
      2 C04        -19.6950    11.1610     6.1380 c3         1 LN3      -0.170400
      3 C05        -18.9530    10.1690     5.2000 c3         1 LN3      -0.018300
      4 C09        -21.5040     8.6170     2.6420 c3         1 LN3       0.042700
      5 C10        -22.9370     9.1920     2.4750 c3         1 LN3      -0.209400
      6 C11        -23.8250     8.2250     1.6790 c          1 LN3       0.720000
      7 C17        -21.3080     4.9310     3.9580 c3         1 LN3       0.031700
      8 C18        -20.9330     5.1940     5.4480 c3         1 LN3      -0.222400
      9 C19        -22.1140     5.8350     6.1870 c          1 LN3       0.736000
     10 C25        -20.1120     1.3720     2.9810 c3         1 LN3      -0.159400
     11 C26        -19.2480     0.6140     4.0160 c3         1 LN3      -0.072400
     12 C27        -18.3390    -0.4570     3.3740 c3         1 LN3      -0.073400
     13 C28        -17.4860    -1.2260     4.4060 c3         1 LN3      -0.080400
     14 C29        -16.5790    -2.2990     3.7570 c3         1 LN3      -0.071400
     15 C30        -15.7820    -3.1610     4.7650 c3         1 LN3      -0.070400
     16 C31        -14.7220    -2.3820     5.5790 c3         1 LN3      -0.078400
     17 C32        -13.8880    -3.2930     6.5060 c3         1 LN3      -0.073400
     18 C33        -12.8290    -2.5200     7.3220 c3         1 LN3      -0.074400
     19 C34        -11.9950    -3.4340     8.2450 c3         1 LN3      -0.104400
     20 C35        -10.9380    -2.6600     9.0600 c3         1 LN3       0.107000
     21 C37         -8.9290    -4.1750     9.3620 c3         1 LN3      -0.051000
     22 C38         -7.5740    -3.5450     9.7860 c          1 LN3       0.713000
     23 C41        -10.4320    -3.6930    11.3340 c          1 LN3       0.615100
     24 C43        -11.7030    -3.0390    11.9240 c3         1 LN3      -0.151400
     25 C44        -12.0800    -3.4700    13.3700 c3         1 LN3      -0.139400
     26 C45        -12.5930    -4.9170    13.4160 c          1 LN3       0.620100
     27 C48        -11.8230    -7.1650    14.1420 cc         1 LN3       0.588300
     28 C50        -12.7880    -9.1670    14.2620 cd         1 LN3       0.287900
     29 C51        -11.5210    -9.4890    14.6980 cc         1 LN3      -0.149000
     30 C52        -11.1620   -10.8510    15.1060 ca         1 LN3      -0.032000
     31 C53        -10.1020   -11.0600    16.0100 ca         1 LN3      -0.127500
     32 C54         -9.7430   -12.3580    16.4120 ca         1 LN3      -0.092500
     33 C55        -10.4330   -13.4880    15.9160 ca         1 LN3      -0.133600
     34 C56        -10.0460   -14.8940    16.3500 c          1 LN3       0.716600
     35 C59        -11.4930   -13.2750    15.0040 ca         1 LN3      -0.092500
     36 C60        -11.8510   -11.9750    14.6050 ca         1 LN3      -0.127500
     37 C62        -17.9290     9.2640     5.9610 c          1 LN3       0.721000
     38 N06        -19.9160     9.3280     4.4490 ns         1 LN3      -0.430900
     39 N14        -21.5390     7.3600     3.4250 ns         1 LN3      -0.447900
     40 N22        -20.6140     3.7310     3.4380 ns         1 LN3      -0.458900
     41 N36        -10.1460    -3.5400     9.9530 n          1 LN3      -0.353800
     42 N47        -11.6850    -5.8190    13.9170 ns         1 LN3      -0.486400
     43 N49        -12.9520    -7.8260    13.9410 nd         1 LN3      -0.654000
     44 O01        -18.1930    11.8920     7.8320 o          1 LN3      -0.796500
     45 O03        -18.4260    13.1740     6.1240 o          1 LN3      -0.796500
     46 O12        -23.8120     8.3040     0.4610 o          1 LN3      -0.772000
     47 O13        -24.4910     7.4060     2.2930 o          1 LN3      -0.772000
     48 O20        -22.2380     7.0460     6.1070 o          1 LN3      -0.731500
     49 O21        -22.9260     5.1030     6.7290 o          1 LN3      -0.731500
     50 O24        -22.0000     2.1330     4.2940 o          1 LN3      -0.646100
     51 O39         -6.6410    -4.2950    10.0350 o          1 LN3      -0.737500
     52 O40         -7.4810    -2.3250     9.8240 o          1 LN3      -0.737500
     53 O42         -9.6890    -4.3530    12.0520 o          1 LN3      -0.646100
     54 O46        -13.7230    -5.2030    13.0510 o          1 LN3      -0.522100
     55 O57        -10.6710   -15.8420    15.8960 o          1 LN3      -0.729500
     56 O58         -9.1210   -15.0310    17.1400 o          1 LN3      -0.729500
     57 O63        -18.3570     8.3370     6.6380 o          1 LN3      -0.752000
     58 O64        -16.7390     9.4110     5.7170 o          1 LN3      -0.752000
     59 S61        -10.4790    -8.1010    14.7490 ss         1 LN3      -0.147400
     60 H042       -20.1750    10.5560     6.9160 hc         1 LN3       0.017700
     61 H041       -20.4060    11.6960     5.4960 hc         1 LN3       0.017700
     62 H051       -18.3770    10.7540     4.4710 h1         1 LN3       0.057700
     63 H091       -21.1170     8.3930     1.6400 h1         1 LN3       0.079700
     64 H101       -22.8140    10.1250     1.9110 hc         1 LN3       0.033200
     65 H102       -23.3310     9.3410     3.4880 hc         1 LN3       0.033200
     66 H171       -22.3880     4.7410     3.8990 h1         1 LN3       0.086700
     67 H181       -20.0670     5.8670     5.4350 hc         1 LN3       0.038700
     68 H182       -20.7150     4.2210     5.9040 hc         1 LN3       0.038700
     69 H252       -20.7530     0.6450     2.4670 hc         1 LN3       0.038200
     70 H251       -19.4420     1.8510     2.2560 hc         1 LN3       0.038200
     71 H261       -18.6260     1.3350     4.5630 hc         1 LN3       0.056700
     72 H262       -19.9050     0.1350     4.7530 hc         1 LN3       0.056700
     73 H272       -18.9620    -1.1700     2.8190 hc         1 LN3       0.023700
     74 H271       -17.6750     0.0240     2.6440 hc         1 LN3       0.023700
     75 H282       -16.8680    -0.5080     4.9580 hc         1 LN3       0.044200
     76 H281       -18.1500    -1.7080     5.1350 hc         1 LN3       0.044200
     77 H291       -17.2040    -2.9690     3.1530 hc         1 LN3       0.026200
     78 H292       -15.8800    -1.8140     3.0640 hc         1 LN3       0.026200
     79 H301       -16.4810    -3.6510     5.4530 hc         1 LN3       0.027200
     80 H302       -15.2790    -3.9610     4.2080 hc         1 LN3       0.027200
     81 H311       -14.0500    -1.8580     4.8880 hc         1 LN3       0.042700
     82 H312       -15.2170    -1.6170     6.1890 hc         1 LN3       0.042700
     83 H321       -14.5610    -3.8180     7.1950 hc         1 LN3       0.031700
     84 H322       -13.3870    -4.0600     5.9020 hc         1 LN3       0.031700
     85 H332       -12.1560    -1.9930     6.6330 hc         1 LN3       0.038200
     86 H331       -13.3300    -1.7550     7.9290 hc         1 LN3       0.038200
     87 H341       -12.6670    -3.9620     8.9320 hc         1 LN3       0.044200
     88 H342       -11.4920    -4.1980     7.6400 hc         1 LN3       0.044200
     89 H352       -10.2500    -2.1650     8.3610 h1         1 LN3       0.050700
     90 H351       -11.4220    -1.8610     9.6330 h1         1 LN3       0.050700
     91 H372        -8.9860    -4.1250     8.2670 h1         1 LN3       0.037700
     92 H371        -8.9180    -5.2370     9.6390 h1         1 LN3       0.037700
     93 H431       -11.5520    -1.9540    11.8770 hc         1 LN3       0.067700
     94 H432       -12.5400    -3.1740    11.2300 hc         1 LN3       0.067700
     95 H442       -11.2020    -3.3480    14.0150 hc         1 LN3       0.058200
     96 H441       -12.8840    -2.8110    13.7190 hc         1 LN3       0.058200
     97 H501       -13.6290    -9.8420    14.1630 h4         1 LN3       0.036100
     98 H531        -9.5530   -10.2140    16.4150 ha         1 LN3       0.094000
     99 H541        -8.9210   -12.4820    17.1150 ha         1 LN3       0.122000
    100 H591       -12.0430   -14.1200    14.5970 ha         1 LN3       0.122000
    101 H601       -12.6610   -11.8550    13.8910 ha         1 LN3       0.094000
    102 H061       -20.1820     8.4380     4.8550 hn         1 LN3       0.337500
    103 H141       -22.0430     7.3560     4.3120 hn         1 LN3       0.342500
    104 H221       -19.8030     3.8720     2.8460 hn         1 LN3       0.316500
    105 H471       -10.7770    -5.4250    14.1170 hn         1 LN3       0.321500
    106 C07        -20.5080     9.6620     3.2450 c          1 LN3       0.580100
    107 C15        -21.0300     6.1480     3.0120 c          1 LN3       0.609100
    108 O08        -20.2420    10.7140     2.6720 o          1 LN3      -0.718100
    109 C23        -21.0010     2.4270     3.6520 c          1 LN3       0.585100
    110 O16        -20.3830     6.0470     1.9740 o          1 LN3      -0.660100
@<TRIPOS>BOND
     1     1     2 1   
     2     1    44 1   
     3     1    45 1   
     4     2     3 1   
     5     2    60 1   
     6     2    61 1   
     7     3    37 1   
     8     3    38 1   
     9     3    62 1   
    10     4     5 1   
    11     4    39 1   
    12     4    63 1   
    13     4   106 1   
    14     5     6 1   
    15     5    64 1   
    16     5    65 1   
    17     6    46 1   
    18     6    47 1   
    19     7     8 1   
    20     7    40 1   
    21     7    66 1   
    22     7   107 1   
    23     8     9 1   
    24     8    67 1   
    25     8    68 1   
    26     9    48 1   
    27     9    49 1   
    28    10    11 1   
    29    10    69 1   
    30    10    70 1   
    31    10   109 1   
    32    11    12 1   
    33    11    71 1   
    34    11    72 1   
    35    12    13 1   
    36    12    73 1   
    37    12    74 1   
    38    13    14 1   
    39    13    75 1   
    40    13    76 1   
    41    14    15 1   
    42    14    77 1   
    43    14    78 1   
    44    15    16 1   
    45    15    79 1   
    46    15    80 1   
    47    16    17 1   
    48    16    81 1   
    49    16    82 1   
    50    17    18 1   
    51    17    83 1   
    52    17    84 1   
    53    18    19 1   
    54    18    85 1   
    55    18    86 1   
    56    19    20 1   
    57    19    87 1   
    58    19    88 1   
    59    20    41 1   
    60    20    89 1   
    61    20    90 1   
    62    21    22 1   
    63    21    41 1   
    64    21    91 1   
    65    21    92 1   
    66    22    51 1   
    67    22    52 1   
    68    23    24 1   
    69    23    41 1   
    70    23    53 2   
    71    24    25 1   
    72    24    93 1   
    73    24    94 1   
    74    25    26 1   
    75    25    95 1   
    76    25    96 1   
    77    26    42 1   
    78    26    54 2   
    79    27    42 1   
    80    27    43 2   
    81    27    59 1   
    82    28    29 2   
    83    28    43 1   
    84    28    97 1   
    85    29    30 1   
    86    29    59 1   
    87    30    31 ar  
    88    30    36 ar  
    89    31    32 ar  
    90    31    98 1   
    91    32    33 ar  
    92    32    99 1   
    93    33    34 1   
    94    33    35 ar  
    95    34    55 1   
    96    34    56 1   
    97    35    36 ar  
    98    35   100 1   
    99    36   101 1   
   100    37    57 1   
   101    37    58 1   
   102    38   102 1   
   103    38   106 1   
   104    39   103 1   
   105    39   107 1   
   106    40   104 1   
   107    40   109 1   
   108    42   105 1   
   109    50   109 2   
   110   106   108 2   
   111   107   110 2   
@<TRIPOS>SUBSTRUCTURE
     1 LN3         1 TEMP              0 ****  ****    0 ROOT
