@<TRIPOS>MOLECULE
LN3
  110   111     1     0     0
SMALL
abcg2


@<TRIPOS>ATOM
      1 C02        -20.6130    11.2060     8.4460 c          1 LN3       0.748000
      2 C04        -21.0150     9.9720     7.6180 c3         1 LN3      -0.170400
      3 C05        -20.3180     9.8480     6.2680 c3         1 LN3      -0.018300
      4 C09        -22.1030     8.0820     3.3890 c3         1 LN3       0.042700
      5 C10        -23.5950     8.3860     3.4410 c3         1 LN3      -0.209400
      6 C11        -24.4700     7.4720     2.5510 c          1 LN3       0.720000
      7 C17        -20.5270     4.8570     4.5990 c3         1 LN3       0.031700
      8 C18        -19.7050     5.1600     5.8590 c3         1 LN3      -0.222400
      9 C19        -20.4260     5.9200     6.9890 c          1 LN3       0.736000
     10 C25        -19.2310     1.6280     3.0860 c3         1 LN3      -0.159400
     11 C26        -18.3870     0.6910     3.9500 c3         1 LN3      -0.072400
     12 C27        -17.6240    -0.3450     3.1370 c3         1 LN3      -0.073400
     13 C28        -16.7670    -1.2440     4.0190 c3         1 LN3      -0.080400
     14 C29        -16.0440    -2.3410     3.2470 c3         1 LN3      -0.071400
     15 C30        -15.1900    -3.2500     4.1260 c3         1 LN3      -0.070400
     16 C31        -13.9700    -2.5640     4.7310 c3         1 LN3      -0.078400
     17 C32        -13.1460    -3.4850     5.6200 c3         1 LN3      -0.073400
     18 C33        -11.9290    -2.7980     6.2260 c3         1 LN3      -0.074400
     19 C34        -11.1200    -3.7140     7.1320 c3         1 LN3      -0.104400
     20 C35         -9.9150    -3.0070     7.7400 c3         1 LN3       0.107000
     21 C37         -8.0380    -4.5880     7.9190 c3         1 LN3      -0.051000
     22 C38         -6.7120    -3.7960     7.8110 c          1 LN3       0.713000
     23 C41         -9.2570    -3.9730     9.9090 c          1 LN3       0.615100
     24 C43        -10.3560    -3.1490    10.5600 c3         1 LN3      -0.151400
     25 C44        -10.6650    -3.6420    11.9600 c3         1 LN3      -0.139400
     26 C45        -11.1980    -5.0560    11.9520 c          1 LN3       0.620100
     27 C48        -11.6020    -6.9190    13.5080 cc         1 LN3       0.588300
     28 C50        -12.4350    -8.9330    13.3630 cd         1 LN3       0.287900
     29 C51        -12.3790    -8.8870    14.7220 cc         1 LN3      -0.149000
     30 C52        -12.7790    -9.8930    15.7000 ca         1 LN3      -0.032000
     31 C53        -12.2640    -9.9000    16.9980 ca         1 LN3      -0.127500
     32 C54        -12.6650   -10.8580    17.9150 ca         1 LN3      -0.092500
     33 C55        -13.5840   -11.8460    17.5720 ca         1 LN3      -0.133600
     34 C56        -14.0310   -12.8960    18.5850 c          1 LN3       0.716600
     35 C59        -14.0910   -11.8400    16.2740 ca         1 LN3      -0.092500
     36 C60        -13.7060   -10.8810    15.3540 ca         1 LN3      -0.127500
     37 C62        -18.8340     9.3990     6.3880 c          1 LN3       0.721000
     38 N06        -21.0660     8.9670     5.3960 ns         1 LN3      -0.430900
     39 N14        -21.8560     6.7690     3.9380 ns         1 LN3      -0.447900
     40 N22        -19.8780     3.8570     3.7800 ns         1 LN3      -0.458900
     41 N36         -9.1120    -3.8800     8.5770 n          1 LN3      -0.353800
     42 N47        -11.1070    -5.6790    13.1770 ns         1 LN3      -0.486400
     43 N49        -11.9980    -7.8330    12.6870 nd         1 LN3      -0.654000
     44 O01        -20.6060    11.0730     9.6880 o          1 LN3      -0.796500
     45 O03        -20.3940    12.2600     7.8150 o          1 LN3      -0.796500
     46 O12        -23.9340     6.9850     1.5380 o          1 LN3      -0.772000
     47 O13        -25.6540     7.3390     2.9160 o          1 LN3      -0.772000
     48 O20        -21.6260     6.2420     6.8090 o          1 LN3      -0.731500
     49 O21        -19.7490     6.1470     8.0040 o          1 LN3      -0.731500
     50 O24        -20.8910     2.0890     4.7450 o          1 LN3      -0.646100
     51 O39         -5.7940    -4.4100     7.2330 o          1 LN3      -0.737500
     52 O40         -6.6810    -2.6500     8.2900 o          1 LN3      -0.737500
     53 O42         -8.5390    -4.6890    10.6020 o          1 LN3      -0.646100
     54 O46        -11.6930    -5.5740    10.9780 o          1 LN3      -0.522100
     55 O57        -14.8570   -13.7360    18.1790 o          1 LN3      -0.729500
     56 O58        -13.5310   -12.8180    19.7230 o          1 LN3      -0.729500
     57 O63        -18.2450     9.7160     7.4390 o          1 LN3      -0.752000
     58 O64        -18.3470     8.7920     5.4140 o          1 LN3      -0.752000
     59 S61        -11.7390    -7.3430    15.1890 ss         1 LN3      -0.147400
     60 H042       -20.8830     9.0600     8.2070 hc         1 LN3       0.017700
     61 H041       -22.0950    10.0600     7.4360 hc         1 LN3       0.017700
     62 H051       -20.3170    10.8380     5.8050 h1         1 LN3       0.057700
     63 H091       -21.7810     8.0910     2.3480 h1         1 LN3       0.079700
     64 H101       -23.7460     9.4180     3.1090 hc         1 LN3       0.033200
     65 H102       -23.9450     8.3520     4.4770 hc         1 LN3       0.033200
     66 H171       -21.5000     4.4630     4.8940 h1         1 LN3       0.086700
     67 H181       -18.7990     5.7090     5.5850 hc         1 LN3       0.038700
     68 H182       -19.3590     4.2070     6.2690 hc         1 LN3       0.038700
     69 H252       -19.9060     1.0370     2.4610 hc         1 LN3       0.038200
     70 H251       -18.5870     2.1950     2.4100 hc         1 LN3       0.038200
     71 H261       -17.6820     1.2820     4.5430 hc         1 LN3       0.056700
     72 H262       -19.0370     0.1780     4.6620 hc         1 LN3       0.056700
     73 H272       -18.3340    -0.9540     2.5680 hc         1 LN3       0.023700
     74 H271       -16.9880     0.1540     2.3980 hc         1 LN3       0.023700
     75 H282       -16.0460    -0.6220     4.5580 hc         1 LN3       0.044200
     76 H281       -17.4000    -1.7050     4.7850 hc         1 LN3       0.044200
     77 H291       -16.7860    -2.9460     2.7180 hc         1 LN3       0.026200
     78 H292       -15.4140    -1.8900     2.4720 hc         1 LN3       0.026200
     79 H301       -15.8120    -3.6600     4.9300 hc         1 LN3       0.027200
     80 H302       -14.8540    -4.1100     3.5370 hc         1 LN3       0.027200
     81 H311       -13.3390    -2.1750     3.9240 hc         1 LN3       0.042700
     82 H312       -14.2820    -1.6930     5.3160 hc         1 LN3       0.042700
     83 H321       -13.7800    -3.8730     6.4250 hc         1 LN3       0.031700
     84 H322       -12.8210    -4.3580     5.0430 hc         1 LN3       0.031700
     85 H332       -11.2870    -2.4190     5.4230 hc         1 LN3       0.038200
     86 H331       -12.2550    -1.9200     6.7930 hc         1 LN3       0.038200
     87 H341       -11.7600    -4.0980     7.9340 hc         1 LN3       0.044200
     88 H342       -10.7800    -4.5880     6.5670 hc         1 LN3       0.044200
     89 H352        -9.2710    -2.6270     6.9440 h1         1 LN3       0.050700
     90 H351       -10.2360    -2.1280     8.2990 h1         1 LN3       0.050700
     91 H372        -8.3710    -4.8540     6.9120 h1         1 LN3       0.037700
     92 H371        -7.8480    -5.5310     8.4320 h1         1 LN3       0.037700
     93 H431       -10.0280    -2.1070    10.6150 hc         1 LN3       0.067700
     94 H432       -11.2660    -3.1460     9.9610 hc         1 LN3       0.067700
     95 H442        -9.7930    -3.5670    12.6100 hc         1 LN3       0.058200
     96 H441       -11.4350    -3.0030    12.4040 hc         1 LN3       0.058200
     97 H501       -12.7820    -9.7880    12.7990 h4         1 LN3       0.036100
     98 H531       -11.5340    -9.1570    17.3000 ha         1 LN3       0.094000
     99 H541       -12.2520   -10.8380    18.9140 ha         1 LN3       0.122000
    100 H591       -14.8130   -12.5920    15.9830 ha         1 LN3       0.122000
    101 H601       -14.1450   -10.8890    14.3640 ha         1 LN3       0.094000
    102 H061       -21.3170     8.0670     5.7870 hn         1 LN3       0.337500
    103 H141       -22.4270     6.4580     4.7120 hn         1 LN3       0.342500
    104 H221       -19.1520     4.1730     3.1560 hn         1 LN3       0.316500
    105 H471       -10.7010    -5.1400    13.9280 hn         1 LN3       0.321500
    106 C07        -21.3210     9.1890     4.1070 c          1 LN3       0.580100
    107 C15        -20.7070     6.1090     3.7470 c          1 LN3       0.609100
    108 O08        -21.0390    10.2210     3.5040 o          1 LN3      -0.718100
    109 C23        -20.0800     2.5390     3.9450 c          1 LN3       0.585100
    110 O16        -19.8440     6.4650     2.9570 o          1 LN3      -0.660100
@<TRIPOS>BOND
     1     1     2 1   
     2     1    44 1   
     3     1    45 1   
     4     2     3 1   
     5     2    60 1   
     6     2    61 1   
     7     3    37 1   
     8     3    38 1   
     9     3    62 1   
    10     4     5 1   
    11     4    39 1   
    12     4    63 1   
    13     4   106 1   
    14     5     6 1   
    15     5    64 1   
    16     5    65 1   
    17     6    46 1   
    18     6    47 1   
    19     7     8 1   
    20     7    40 1   
    21     7    66 1   
    22     7   107 1   
    23     8     9 1   
    24     8    67 1   
    25     8    68 1   
    26     9    48 1   
    27     9    49 1   
    28    10    11 1   
    29    10    69 1   
    30    10    70 1   
    31    10   109 1   
    32    11    12 1   
    33    11    71 1   
    34    11    72 1   
    35    12    13 1   
    36    12    73 1   
    37    12    74 1   
    38    13    14 1   
    39    13    75 1   
    40    13    76 1   
    41    14    15 1   
    42    14    77 1   
    43    14    78 1   
    44    15    16 1   
    45    15    79 1   
    46    15    80 1   
    47    16    17 1   
    48    16    81 1   
    49    16    82 1   
    50    17    18 1   
    51    17    83 1   
    52    17    84 1   
    53    18    19 1   
    54    18    85 1   
    55    18    86 1   
    56    19    20 1   
    57    19    87 1   
    58    19    88 1   
    59    20    41 1   
    60    20    89 1   
    61    20    90 1   
    62    21    22 1   
    63    21    41 1   
    64    21    91 1   
    65    21    92 1   
    66    22    51 1   
    67    22    52 1   
    68    23    24 1   
    69    23    41 1   
    70    23    53 2   
    71    24    25 1   
    72    24    93 1   
    73    24    94 1   
    74    25    26 1   
    75    25    95 1   
    76    25    96 1   
    77    26    42 1   
    78    26    54 2   
    79    27    42 1   
    80    27    43 2   
    81    27    59 1   
    82    28    29 2   
    83    28    43 1   
    84    28    97 1   
    85    29    30 1   
    86    29    59 1   
    87    30    31 ar  
    88    30    36 ar  
    89    31    32 ar  
    90    31    98 1   
    91    32    33 ar  
    92    32    99 1   
    93    33    34 1   
    94    33    35 ar  
    95    34    55 1   
    96    34    56 1   
    97    35    36 ar  
    98    35   100 1   
    99    36   101 1   
   100    37    57 1   
   101    37    58 1   
   102    38   102 1   
   103    38   106 1   
   104    39   103 1   
   105    39   107 1   
   106    40   104 1   
   107    40   109 1   
   108    42   105 1   
   109    50   109 2   
   110   106   108 2   
   111   107   110 2   
@<TRIPOS>SUBSTRUCTURE
     1 LN3         1 TEMP              0 ****  ****    0 ROOT
