@<TRIPOS>MOLECULE
LN4
   61    64     1     0     0
SMALL
bcc


@<TRIPOS>ATOM
      1 C12        -14.3080    -8.1790    59.9230 ca         1 LN4      -0.157000
      2 C13        -15.4450    -8.9760    59.7730 ca         1 LN4       0.084600
      3 C02        -18.8330   -10.3640    55.7540 ca         1 LN4      -0.055000
      4 C03        -17.6660   -11.0890    55.9790 ca         1 LN4       0.029600
      5 C04        -17.5490   -12.3330    55.3710 ca         1 LN4       0.125900
      6 C05        -18.5350   -12.8600    54.5620 ca         1 LN4      -0.158000
      7 C06        -19.6970   -12.1380    54.3620 ca         1 LN4      -0.067000
      8 C07        -19.8430   -10.8920    54.9640 ca         1 LN4      -0.196300
      9 C09        -16.7840   -10.0240    57.9860 c          1 LN4       0.800100
     10 C14        -16.3330    -9.0910    60.8430 ca         1 LN4      -0.157000
     11 C15        -16.0930    -8.3950    62.0180 ca         1 LN4      -0.098500
     12 C16        -14.9670    -7.5950    62.1610 ca         1 LN4       0.105600
     13 C17        -14.0670    -7.5040    61.1060 ca         1 LN4      -0.098500
     14 C19        -14.1690    -7.6250    64.4980 c3         1 LN4       0.227100
     15 C20        -14.8950    -5.5570    63.4350 ca         1 LN4       0.754200
     16 C22        -14.6680    -3.6440    64.6450 ca         1 LN4       0.941900
     17 C24        -15.5760    -3.4570    62.6000 ca         1 LN4       0.495200
     18 C25        -15.4660    -4.8090    62.3850 ca         1 LN4      -0.469600
     19 C27        -13.7100    -3.4560    66.9570 ca         1 LN4       0.178600
     20 C28        -13.4840    -2.5060    67.9640 ca         1 LN4      -0.146000
     21 C29        -12.9070    -2.8610    69.1670 ca         1 LN4      -0.112000
     22 C30        -12.5370    -4.1760    69.4170 ca         1 LN4      -0.078000
     23 C31        -12.7670    -5.1070    68.4180 ca         1 LN4      -0.284500
     24 C32        -13.3400    -4.7810    67.1970 ca         1 LN4      -0.080000
     25 C37        -21.0880   -10.1060    54.6960 c3         1 LN4       0.725200
     26 F01        -16.4300   -13.0360    55.5760 f          1 LN4      -0.138900
     27 F38        -21.1200    -9.6520    53.4340 f          1 LN4      -0.231967
     28 F39        -21.2080    -9.0430    55.4950 f          1 LN4      -0.231967
     29 F40        -22.1900   -10.8490    54.8590 f          1 LN4      -0.231967
     30 N08        -16.6130   -10.6000    56.7520 ns         1 LN4      -0.497100
     31 N10        -15.6020    -9.6460    58.5590 ns         1 LN4      -0.485100
     32 N18        -14.7320    -6.8970    63.3730 nh         1 LN4      -0.670700
     33 N21        -14.5030    -4.9540    64.5580 nb         1 LN4      -0.844000
     34 N23        -15.1850    -2.8440    63.7150 nb         1 LN4      -0.802000
     35 N26        -14.2810    -2.9950    65.7860 nu         1 LN4      -0.741300
     36 N34        -13.6680    -7.5110    69.4190 n8         1 LN4      -0.887700
     37 O11        -17.8760    -9.8710    58.5000 o          1 LN4      -0.595100
     38 O35        -12.1650    -7.4760    67.4470 o          1 LN4      -0.604300
     39 O36        -11.2990    -6.8380    69.7230 o          1 LN4      -0.604300
     40 S33        -12.3540    -6.8090    68.7240 sy         1 LN4       1.282200
     41 H1         -13.6040    -8.0830    59.1050 ha         1 LN4       0.150000
     42 H2         -18.9330    -9.3830    56.1920 ha         1 LN4       0.173000
     43 H3         -18.3980   -13.8320    54.1070 ha         1 LN4       0.160000
     44 H4         -20.4740   -12.5560    53.7370 ha         1 LN4       0.155000
     45 H5         -17.2080    -9.7170    60.7760 ha         1 LN4       0.150000
     46 H6         -16.7960    -8.4810    62.8370 ha         1 LN4       0.147000
     47 H7         -13.1800    -6.8900    61.2020 ha         1 LN4       0.147000
     48 H8         -14.6790    -7.3700    65.4250 h1         1 LN4       0.051033
     49 H9         -14.2960    -8.6900    64.3190 h1         1 LN4       0.051033
     50 H10        -13.1040    -7.4200    64.6250 h1         1 LN4       0.051033
     51 H11        -16.0060    -2.8240    61.8320 h4         1 LN4       0.020100
     52 H12        -15.8090    -5.2550    61.4650 ha         1 LN4       0.161000
     53 H13        -13.7620    -1.4730    67.7920 ha         1 LN4       0.134000
     54 H14        -12.7410    -2.1030    69.9200 ha         1 LN4       0.137000
     55 H15        -12.0820    -4.4510    70.3580 ha         1 LN4       0.155000
     56 H16        -13.4920    -5.5280    66.4350 ha         1 LN4       0.188000
     57 H17        -15.6800   -10.8360    56.4520 hn         1 LN4       0.328500
     58 H18        -14.7730    -9.6850    57.9840 hn         1 LN4       0.317500
     59 H19        -14.4600    -2.0020    65.7510 hn         1 LN4       0.456800
     60 H20        -13.9200    -7.1090    70.3150 hn         1 LN4       0.420300
     61 H21        -14.4740    -7.5720    68.8060 hn         1 LN4       0.420300
@<TRIPOS>BOND
     1     1     2 ar  
     2     1    13 ar  
     3     1    41 1   
     4     2    10 ar  
     5     2    31 1   
     6     3     4 ar  
     7     3     8 ar  
     8     3    42 1   
     9     4     5 ar  
    10     4    30 1   
    11     5     6 ar  
    12     5    26 1   
    13     6     7 ar  
    14     6    43 1   
    15     7     8 ar  
    16     7    44 1   
    17     8    25 1   
    18     9    30 1   
    19     9    31 1   
    20     9    37 2   
    21    10    11 ar  
    22    10    45 1   
    23    11    12 ar  
    24    11    46 1   
    25    12    13 ar  
    26    12    32 1   
    27    13    47 1   
    28    14    32 1   
    29    14    48 1   
    30    14    49 1   
    31    14    50 1   
    32    15    18 ar  
    33    15    32 1   
    34    15    33 ar  
    35    16    33 ar  
    36    16    34 ar  
    37    16    35 1   
    38    17    18 ar  
    39    17    34 ar  
    40    17    51 1   
    41    18    52 1   
    42    19    20 ar  
    43    19    24 ar  
    44    19    35 1   
    45    20    21 ar  
    46    20    53 1   
    47    21    22 ar  
    48    21    54 1   
    49    22    23 ar  
    50    22    55 1   
    51    23    24 ar  
    52    23    40 1   
    53    24    56 1   
    54    25    27 1   
    55    25    28 1   
    56    25    29 1   
    57    30    57 1   
    58    31    58 1   
    59    35    59 1   
    60    36    40 1   
    61    36    60 1   
    62    36    61 1   
    63    38    40 2   
    64    39    40 2   
@<TRIPOS>SUBSTRUCTURE
     1 LN4         1 TEMP              0 ****  ****    0 ROOT
