@<TRIPOS>MOLECULE
LN4
   61    64     1     0     0
SMALL
No Charge or Current Charge


@<TRIPOS>ATOM
      1 C12        -14.8400    -7.8940    60.1180 ca         1 LN4      -0.139000
      2 C13        -16.1080    -8.4210    59.8110 ca         1 LN4      -0.008000
      3 C02        -19.0980   -11.3400    55.9110 ca         1 LN4      -0.037000
      4 C03        -17.7230   -11.0360    55.7800 ca         1 LN4      -0.063000
      5 C04        -17.0420   -11.4760    54.6270 ca         1 LN4       0.161000
      6 C05        -17.7080   -12.1970    53.6270 ca         1 LN4      -0.140000
      7 C06        -19.0730   -12.4950    53.7640 ca         1 LN4      -0.049000
      8 C07        -19.7780   -12.0730    54.9120 ca         1 LN4      -0.196300
      9 C09        -17.3290    -9.7570    57.9840 c          1 LN4       0.666100
     10 C14        -17.1610    -8.2320    60.7330 ca         1 LN4      -0.139000
     11 C15        -16.9400    -7.5300    61.9330 ca         1 LN4      -0.080500
     12 C16        -15.6720    -7.0000    62.2370 ca         1 LN4       0.244000
     13 C17        -14.6230    -7.1930    61.3180 ca         1 LN4      -0.080500
     14 C19        -15.8480    -6.9490    64.7270 c3         1 LN4       0.227100
     15 C20        -14.8020    -5.0400    63.4740 ca         1 LN4       0.425900
     16 C22        -13.6330    -3.4580    64.6470 ca         1 LN4       0.415900
     17 C24        -14.1010    -2.9750    62.4650 ca         1 LN4       0.166900
     18 C25        -14.7550    -4.2080    62.3440 ca         1 LN4      -0.321000
     19 C27        -12.8440    -3.5730    67.0970 ca         1 LN4       0.317000
     20 C28        -12.6910    -2.7020    68.1910 ca         1 LN4      -0.128000
     21 C29        -12.4500    -3.2050    69.4820 ca         1 LN4      -0.094000
     22 C30        -12.3500    -4.5900    69.6930 ca         1 LN4      -0.060000
     23 C31        -12.4860    -5.4790    68.6070 ca         1 LN4      -0.284500
     24 C32        -12.7290    -4.9640    67.3110 ca         1 LN4      -0.062000
     25 C37        -21.2710   -12.3790    55.0800 c3         1 LN4       0.361300
     26 F01        -15.7260   -11.2000    54.4700 f          1 LN4      -0.174000
     27 F38        -22.0270   -11.2890    54.8200 f          1 LN4      -0.110667
     28 F39        -21.5660   -12.7740    56.3390 f          1 LN4      -0.110667
     29 F40        -21.7030   -13.3630    54.2570 f          1 LN4      -0.110667
     30 N08        -16.9820   -10.3010    56.7550 ns         1 LN4      -0.171000
     31 N10        -16.2500    -9.1170    58.5790 ns         1 LN4      -0.159000
     32 N18        -15.4520    -6.2980    63.4480 nh         1 LN4      -0.809100
     33 N21        -14.2470    -4.6500    64.6360 nb         1 LN4      -0.318000
     34 N23        -13.5370    -2.5950    63.6240 nb         1 LN4      -0.276000
     35 N26        -13.0680    -3.0110    65.8310 nu         1 LN4      -0.934900
     36 N34        -13.8420    -7.6220    69.4150 n8         1 LN4      -0.998100
     37 O11        -18.4470    -9.8340    58.4800 o          1 LN4      -0.595100
     38 O35        -12.2510    -7.9450    67.5900 o          1 LN4      -0.533500
     39 O36        -11.4510    -7.5330    69.9970 o          1 LN4      -0.533500
     40 S33        -12.3440    -7.2520    68.8720 sy         1 LN4       1.140600
     41 H1         -14.0110    -8.0280    59.4250 ha         1 LN4       0.132000
     42 H2         -19.6600   -11.0110    56.7800 ha         1 LN4       0.155000
     43 H3         -17.1660   -12.5230    52.7430 ha         1 LN4       0.142000
     44 H4         -19.5740   -13.0510    52.9730 ha         1 LN4       0.137000
     45 H5         -18.1580    -8.6160    60.5420 ha         1 LN4       0.132000
     46 H6         -17.7650    -7.3860    62.6250 ha         1 LN4       0.129000
     47 H7         -13.6340    -6.8020    61.5400 ha         1 LN4       0.129000
     48 H8         -16.5360    -6.3060    65.2910 h1         1 LN4       0.051033
     49 H9         -16.3580    -7.9040    64.5450 h1         1 LN4       0.051033
     50 H10        -14.9660    -7.1640    65.3450 h1         1 LN4       0.051033
     51 H11        -14.0330    -2.2820    61.6280 h4         1 LN4       0.020100
     52 H12        -15.2200    -4.4920    61.4050 ha         1 LN4       0.143000
     53 H13        -12.7660    -1.6280    68.0450 ha         1 LN4       0.116000
     54 H14        -12.3410    -2.5200    70.3200 ha         1 LN4       0.119000
     55 H15        -12.1630    -4.9660    70.6990 ha         1 LN4       0.137000
     56 H16        -12.8040    -5.6440    66.4690 ha         1 LN4       0.170000
     57 H17        -16.0160   -10.1510    56.4960 hn         1 LN4       0.162000
     58 H18        -15.3990    -9.1500    58.0330 hn         1 LN4       0.151000
     59 H19        -12.8220    -2.0230    65.7780 hn         1 LN4       0.512000
     60 H20        -14.3890    -6.8310    69.0860 hn         1 LN4       0.475500
     61 H21        -14.0950    -8.3770    68.7810 hn         1 LN4       0.475500
@<TRIPOS>BOND
     1     1     2 ar  
     2     1    13 ar  
     3     1    41 1   
     4     2    10 ar  
     5     2    31 1   
     6     3     4 ar  
     7     3     8 ar  
     8     3    42 1   
     9     4     5 ar  
    10     4    30 1   
    11     5     6 ar  
    12     5    26 1   
    13     6     7 ar  
    14     6    43 1   
    15     7     8 ar  
    16     7    44 1   
    17     8    25 1   
    18     9    30 1   
    19     9    31 1   
    20     9    37 2   
    21    10    11 ar  
    22    10    45 1   
    23    11    12 ar  
    24    11    46 1   
    25    12    13 ar  
    26    12    32 1   
    27    13    47 1   
    28    14    32 1   
    29    14    48 1   
    30    14    49 1   
    31    14    50 1   
    32    15    18 ar  
    33    15    32 1   
    34    15    33 ar  
    35    16    33 ar  
    36    16    34 ar  
    37    16    35 1   
    38    17    18 ar  
    39    17    34 ar  
    40    17    51 1   
    41    18    52 1   
    42    19    20 ar  
    43    19    24 ar  
    44    19    35 1   
    45    20    21 ar  
    46    20    53 1   
    47    21    22 ar  
    48    21    54 1   
    49    22    23 ar  
    50    22    55 1   
    51    23    24 ar  
    52    23    40 1   
    53    24    56 1   
    54    25    27 1   
    55    25    28 1   
    56    25    29 1   
    57    30    57 1   
    58    31    58 1   
    59    35    59 1   
    60    36    40 1   
    61    36    60 1   
    62    36    61 1   
    63    38    40 2   
    64    39    40 2   
@<TRIPOS>SUBSTRUCTURE
     1 LN4         1 TEMP              0 ****  ****    0 ROOT
