@<TRIPOS>MOLECULE
LN5
   29    28     1     0     0
SMALL
No Charge or Current Charge


@<TRIPOS>ATOM
      1 CT1         -5.3160    -0.9700     0.3290 c3         1 LN5      -0.069100
      2 CH1         -4.8120     0.0200    -0.7430 c3         1 LN5      -0.117700
      3 CZ          -3.6040     0.8170    -0.2960 c2         1 LN5       0.633200
      4 NH2         -3.6340     2.0060     0.1370 n2         1 LN5      -0.871100
      5 NE          -2.3900     0.1900    -0.3800 nu         1 LN5      -0.969400
      6 CD          -1.0790     0.7390    -0.0000 c3         1 LN5       0.217800
      7 CG           0.0310    -0.3030    -0.2450 c3         1 LN5      -0.091400
      8 CB           1.4410     0.2210     0.1300 c3         1 LN5      -0.098400
      9 CA           2.6000    -0.7680    -0.1670 c3         1 LN5       0.019500
     10 C            4.0050    -0.0320    -0.0890 c          1 LN5       0.723000
     11 OA2          4.3980     0.3700     1.0000 o          1 LN5      -0.729500
     12 OA1          4.6750     0.0510    -1.1110 o          1 LN5      -0.729500
     13 N            2.4480    -2.0120     0.6710 n8         1 LN5      -0.990200
     14 H1H2        -2.6620     2.2530     0.3480 hn         1 LN5       0.376400
     15 H1T1        -6.1960    -1.5130    -0.0350 hc         1 LN5       0.035367
     16 H2T1        -4.5400    -1.7020     0.5800 hc         1 LN5       0.035367
     17 H3T1        -5.5960    -0.4370     1.2460 hc         1 LN5       0.035367
     18 H1H1        -4.5780    -0.5350    -1.6590 hc         1 LN5       0.042200
     19 H2H1        -5.6300     0.7010    -1.0020 hc         1 LN5       0.042200
     20 HNE         -2.4190    -0.7660    -0.7270 hn         1 LN5       0.480000
     21 H1D         -0.8630     1.6410    -0.5910 h1         1 LN5       0.036200
     22 H2D         -1.0820     1.0190     1.0620 h1         1 LN5       0.036200
     23 H1G         -0.1950    -1.2040     0.3390 hc         1 LN5       0.033200
     24 H2G          0.0260    -0.5920    -1.3030 hc         1 LN5       0.033200
     25 H1B          1.6250     1.1440    -0.4360 hc         1 LN5       0.046700
     26 H2B          1.4590     0.5010     1.1910 hc         1 LN5       0.046700
     27 HA           2.4860    -1.0830    -1.2140 h1         1 LN5       0.042700
     28 H1N          2.6230    -1.7690     1.6540 hn         1 LN5       0.376000
     29 H2N          1.4640    -2.3030     0.6590 hn         1 LN5       0.376000
@<TRIPOS>BOND
     1     1     2 1   
     2     1    15 1   
     3     1    16 1   
     4     1    17 1   
     5     2     3 1   
     6     2    18 1   
     7     2    19 1   
     8     3     4 2   
     9     3     5 1   
    10     4    14 1   
    11     5     6 1   
    12     5    20 1   
    13     6     7 1   
    14     6    21 1   
    15     6    22 1   
    16     7     8 1   
    17     7    23 1   
    18     7    24 1   
    19     8     9 1   
    20     8    25 1   
    21     8    26 1   
    22     9    10 1   
    23     9    13 1   
    24     9    27 1   
    25    10    11 1   
    26    10    12 1   
    27    13    28 1   
    28    13    29 1   
@<TRIPOS>SUBSTRUCTURE
     1 LN5         1 TEMP              0 ****  ****    0 ROOT
