@<TRIPOS>MOLECULE
LN5
   29    28     1     0     0
SMALL
abcg2


@<TRIPOS>ATOM
      1 CT1         -6.0160    -0.0420    -0.0060 c3         1 LN5      -0.069100
      2 CH1         -4.6410    -0.5160    -0.4380 c3         1 LN5      -0.117700
      3 CZ          -3.4920     0.2930     0.1140 c2         1 LN5       0.633200
      4 NH2         -3.7190     1.3550     0.7910 n2         1 LN5      -0.871100
      5 NE          -2.2710    -0.2180    -0.1810 nu         1 LN5      -0.969400
      6 CD          -1.0270     0.4140     0.1900 c3         1 LN5       0.217800
      7 CG           0.1590    -0.4080    -0.2890 c3         1 LN5      -0.091400
      8 CB           1.4900     0.2150     0.1070 c3         1 LN5      -0.098400
      9 CA           2.7130    -0.5710    -0.3990 c3         1 LN5       0.019500
     10 C            3.9840     0.2630    -0.1190 c          1 LN5       0.723000
     11 OA2          4.7240    -0.1120     0.8110 o          1 LN5      -0.729500
     12 OA1          4.1430     1.2730    -0.8330 o          1 LN5      -0.729500
     13 N            2.8450    -1.9090     0.1530 n8         1 LN5      -0.990200
     14 H1H2        -2.8570     1.8060     1.0860 hn         1 LN5       0.376400
     15 H1T1        -6.7860    -0.6750    -0.4490 hc         1 LN5       0.035367
     16 H2T1        -6.1310    -0.0830     1.0770 hc         1 LN5       0.035367
     17 H3T1        -6.2030     0.9840    -0.3190 hc         1 LN5       0.035367
     18 H1H1        -4.4990    -1.5620    -0.1510 hc         1 LN5       0.042200
     19 H2H1        -4.5690    -0.5040    -1.5300 hc         1 LN5       0.042200
     20 HNE         -2.2240    -1.0280    -0.7760 hn         1 LN5       0.480000
     21 H1D         -0.9650     1.4250    -0.2320 h1         1 LN5       0.036200
     22 H2D         -0.9750     0.5280     1.2790 h1         1 LN5       0.036200
     23 H1G          0.0660    -1.4190     0.1200 hc         1 LN5       0.033200
     24 H2G          0.1140    -0.5050    -1.3790 hc         1 LN5       0.033200
     25 H1B          1.5380     1.2310    -0.2920 hc         1 LN5       0.046700
     26 H2B          1.5480     0.3030     1.1980 hc         1 LN5       0.046700
     27 HA           2.6100    -0.6580    -1.4880 h1         1 LN5       0.042700
     28 H1N          3.1800    -1.8290     1.1050 hn         1 LN5       0.376000
     29 H2N          1.9450    -2.3700     0.1970 hn         1 LN5       0.376000
@<TRIPOS>BOND
     1     1     2 1   
     2     1    15 1   
     3     1    16 1   
     4     1    17 1   
     5     2     3 1   
     6     2    18 1   
     7     2    19 1   
     8     3     4 2   
     9     3     5 1   
    10     4    14 1   
    11     5     6 1   
    12     5    20 1   
    13     6     7 1   
    14     6    21 1   
    15     6    22 1   
    16     7     8 1   
    17     7    23 1   
    18     7    24 1   
    19     8     9 1   
    20     8    25 1   
    21     8    26 1   
    22     9    10 1   
    23     9    13 1   
    24     9    27 1   
    25    10    11 1   
    26    10    12 1   
    27    13    28 1   
    28    13    29 1   
@<TRIPOS>SUBSTRUCTURE
     1 LN5         1 TEMP              0 ****  ****    0 ROOT
