@<TRIPOS>MOLECULE
LN6
   35    34     1     0     0
SMALL
bcc


@<TRIPOS>ATOM
      1 C            5.0570    -0.0950     0.1180 c          1 LN6       0.902600
      2 N            3.6480     1.9680    -0.3340 n8         1 LN6      -0.892800
      3 CA           3.7310     0.6770     0.3330 c3         1 LN6       0.013500
      4 CB           2.5530    -0.2060    -0.0870 c3         1 LN6      -0.047400
      5 CD           0.0520    -0.5320    -0.1590 c3         1 LN6       0.230800
      6 NE          -1.2210     0.0490     0.1890 nu         1 LN6      -0.867200
      7 CG           1.1940     0.3770     0.2680 c3         1 LN6      -0.092400
      8 CZ          -2.4080    -0.5260    -0.1120 c2         1 LN6       0.634200
      9 OA1          5.8370     0.3260    -0.7600 o          1 LN6      -0.839300
     10 OA2          5.2310    -1.0960     0.8450 o          1 LN6      -0.839300
     11 CH1         -3.6050     0.2700     0.3670 c3         1 LN6      -0.176700
     12 NH2         -2.4370    -1.6510    -0.7240 n2         1 LN6      -0.869100
     13 CI1         -6.1030     0.6470     0.3780 c3         1 LN6      -0.075400
     14 CK1         -7.4620     0.1700    -0.1150 c3         1 LN6      -0.088100
     15 CT1         -4.9550    -0.2120    -0.1400 c3         1 LN6      -0.074400
     16 HN           4.3490     2.5840     0.0610 hn         1 LN6       0.326300
     17 HNA          3.9450     1.8390    -1.2950 hn         1 LN6       0.326300
     18 HA           3.6340     0.8590     1.4100 h1         1 LN6       0.034700
     19 HB           2.6060    -0.3800    -1.1690 hc         1 LN6       0.042700
     20 HBA          2.6670    -1.1840     0.3860 hc         1 LN6       0.042700
     21 HD           0.1610    -1.5130     0.3180 h1         1 LN6       0.044700
     22 HDA          0.1010    -0.7120    -1.2380 h1         1 LN6       0.044700
     23 HNE         -1.2230     0.9430     0.6510 hn         1 LN6       0.426800
     24 HG           1.1400     0.5380     1.3500 hc         1 LN6       0.037700
     25 HGA          1.0790     1.3580    -0.1990 hc         1 LN6       0.037700
     26 HH1         -3.5990     0.2570     1.4610 hc         1 LN6       0.050700
     27 HH1A        -3.4620     1.3170     0.0830 hc         1 LN6       0.050700
     28 HNH2        -3.3930    -1.9530    -0.8650 hn         1 LN6       0.365400
     29 HI1         -5.9450     1.6860     0.0740 hc         1 LN6       0.036200
     30 HI1A        -6.0890     0.6460     1.4720 hc         1 LN6       0.036200
     31 HK1         -8.2660     0.8020     0.2640 hc         1 LN6       0.030033
     32 HK1A        -7.5160     0.1840    -1.2050 hc         1 LN6       0.030033
     33 HK1B        -7.6630    -0.8510     0.2120 hc         1 LN6       0.030033
     34 HT1         -4.9660    -0.2080    -1.2350 hc         1 LN6       0.044200
     35 HT1A        -5.1240    -1.2490     0.1680 hc         1 LN6       0.044200
@<TRIPOS>BOND
     1     1     3 1   
     2     1     9 1   
     3     1    10 1   
     4     2     3 1   
     5     2    16 1   
     6     2    17 1   
     7     3     4 1   
     8     3    18 1   
     9     4     7 1   
    10     4    19 1   
    11     4    20 1   
    12     5     6 1   
    13     5     7 1   
    14     5    21 1   
    15     5    22 1   
    16     6     8 1   
    17     6    23 1   
    18     7    24 1   
    19     7    25 1   
    20     8    11 1   
    21     8    12 2   
    22    11    15 1   
    23    11    26 1   
    24    11    27 1   
    25    12    28 1   
    26    13    14 1   
    27    13    15 1   
    28    13    29 1   
    29    13    30 1   
    30    14    31 1   
    31    14    32 1   
    32    14    33 1   
    33    15    34 1   
    34    15    35 1   
@<TRIPOS>SUBSTRUCTURE
     1 LN6         1 TEMP              0 ****  ****    0 ROOT
