@<TRIPOS>MOLECULE
LN6
   35    34     1     0     0
SMALL
No Charge or Current Charge


@<TRIPOS>ATOM
      1 C            4.8750     0.4590    -0.1280 c          1 LN6       0.692000
      2 N            3.0560     2.0950    -1.0810 n8         1 LN6      -1.003200
      3 CA           3.3950     1.0240    -0.0710 c3         1 LN6       0.013500
      4 CB           2.3720    -0.1440    -0.1340 c3         1 LN6      -0.047400
      5 CD          -0.0430    -0.9550     0.2330 c3         1 LN6       0.230800
      6 NE          -1.3980    -0.5340     0.6200 nu         1 LN6      -0.922400
      7 CG           0.9240     0.2460     0.2560 c3         1 LN6      -0.092400
      8 CZ          -2.4970    -1.3440     0.7000 c2         1 LN6       0.634200
      9 OA1          5.3160     0.0870    -1.2090 o          1 LN6      -0.734000
     10 OA2          5.5590     0.5190     0.8850 o          1 LN6      -0.734000
     11 CH1         -3.7920    -0.6700     1.0910 c3         1 LN6      -0.176700
     12 NH2         -2.3790    -2.5850     0.4520 n2         1 LN6      -0.869100
     13 CI1         -5.8520     0.6600     0.2950 c3         1 LN6      -0.075400
     14 CK1         -6.5840     1.3060    -0.8980 c3         1 LN6      -0.088100
     15 CT1         -4.5260    -0.0210    -0.1060 c3         1 LN6      -0.074400
     16 HN           3.7160     2.8750    -0.9740 hn         1 LN6       0.381500
     17 HNA          3.2760     1.7330    -2.0170 hn         1 LN6       0.381500
     18 HA           3.2880     1.4890     0.9190 h1         1 LN6       0.034700
     19 HB           2.3770    -0.5810    -1.1400 hc         1 LN6       0.042700
     20 HBA          2.7100    -0.9340     0.5480 hc         1 LN6       0.042700
     21 HD           0.3230    -1.7260     0.9260 h1         1 LN6       0.044700
     22 HDA         -0.0570    -1.3870    -0.7780 h1         1 LN6       0.044700
     23 HNE         -1.5640     0.4550     0.7870 hn         1 LN6       0.482000
     24 HG           0.9310     0.6850     1.2610 hc         1 LN6       0.037700
     25 HGA          0.5540     1.0150    -0.4330 hc         1 LN6       0.037700
     26 HH1         -4.4600    -1.4010     1.5630 hc         1 LN6       0.050700
     27 HH1A        -3.6000     0.0950     1.8540 hc         1 LN6       0.050700
     28 HNH2        -3.3050    -3.0180     0.5630 hn         1 LN6       0.365400
     29 HI1         -5.6520     1.4310     1.0500 hc         1 LN6       0.036200
     30 HI1A        -6.5160    -0.0800     0.7610 hc         1 LN6       0.036200
     31 HK1         -7.5170     1.7750    -0.5650 hc         1 LN6       0.030033
     32 HK1A        -5.9590     2.0770    -1.3640 hc         1 LN6       0.030033
     33 HK1B        -6.8300     0.5530    -1.6560 hc         1 LN6       0.030033
     34 HT1         -3.8670     0.7210    -0.5750 hc         1 LN6       0.044200
     35 HT1A        -4.7290    -0.7900    -0.8630 hc         1 LN6       0.044200
@<TRIPOS>BOND
     1     1     3 1   
     2     1     9 1   
     3     1    10 1   
     4     2     3 1   
     5     2    16 1   
     6     2    17 1   
     7     3     4 1   
     8     3    18 1   
     9     4     7 1   
    10     4    19 1   
    11     4    20 1   
    12     5     6 1   
    13     5     7 1   
    14     5    21 1   
    15     5    22 1   
    16     6     8 1   
    17     6    23 1   
    18     7    24 1   
    19     7    25 1   
    20     8    11 1   
    21     8    12 2   
    22    11    15 1   
    23    11    26 1   
    24    11    27 1   
    25    12    28 1   
    26    13    14 1   
    27    13    15 1   
    28    13    29 1   
    29    13    30 1   
    30    14    31 1   
    31    14    32 1   
    32    14    33 1   
    33    15    34 1   
    34    15    35 1   
@<TRIPOS>SUBSTRUCTURE
     1 LN6         1 TEMP              0 ****  ****    0 ROOT
