@<TRIPOS>MOLECULE
LN7
   37    36     1     0     0
SMALL
No Charge or Current Charge


@<TRIPOS>ATOM
      1 C          -28.7980    19.1780   -21.7300 c          1 LN7       0.709000
      2 N          -26.9620    18.8990   -23.5900 n8         1 LN7      -0.976200
      3 CA         -27.2980    18.8230   -22.1230 c3         1 LN7       0.026500
      4 CB         -26.2580    19.6360   -21.3020 c3         1 LN7      -0.050400
      5 CD         -25.2950    20.2150   -18.9870 c3         1 LN7       0.160800
      6 NE         -25.4500    19.9840   -17.5400 n7         1 LN7      -0.857400
      7 CG         -26.3740    19.4400   -19.7710 c3         1 LN7      -0.077400
      8 CZ         -24.5100    20.6610   -16.6960 c3         1 LN7       0.392700
      9 OA1        -29.5670    18.2510   -21.5060 o          1 LN7      -0.729500
     10 OA2        -29.1500    20.3520   -21.7080 o          1 LN7      -0.729500
     11 CH1        -24.7750    22.1880   -16.5950 c3         1 LN7      -0.147400
     12 NH2        -24.7350    19.9940   -15.4510 n8         1 LN7      -0.983200
     13 CI1        -26.9480    22.3210   -15.0720 c3         1 LN7      -0.079400
     14 CK1        -26.2420    22.8580   -13.8090 c3         1 LN7      -0.088100
     15 CT1        -26.2440    22.6820   -16.4050 c3         1 LN7      -0.078400
     16 HN         -26.0110    18.5430   -23.7390 hn         1 LN7       0.362500
     17 HNA        -27.5580    18.2410   -24.1060 hn         1 LN7       0.362500
     18 HA         -27.1530    17.7690   -21.8500 h1         1 LN7       0.005700
     19 HB         -25.2470    19.3410   -21.6120 hc         1 LN7       0.024200
     20 HBA        -26.3600    20.7030   -21.5360 hc         1 LN7       0.024200
     21 HD         -24.3020    19.8840   -19.3200 h1         1 LN7       0.019700
     22 HDA        -25.3890    21.2840   -19.2200 h1         1 LN7       0.019700
     23 HNE        -26.3650    20.3370   -17.2600 hn         1 LN7       0.410000
     24 HG         -27.3640    19.7670   -19.4320 hc         1 LN7       0.057700
     25 HGA        -26.2890    18.3720   -19.5380 hc         1 LN7       0.057700
     26 HZ         -23.4780    20.4730   -17.0300 h2         1 LN7       0.061700
     27 HH1        -24.1460    22.6050   -15.7990 hc         1 LN7       0.037200
     28 HH1A       -24.3950    22.6450   -17.5170 hc         1 LN7       0.037200
     29 HNH2       -23.8280    19.7510   -15.0450 hn         1 LN7       0.385000
     30 HNHA       -25.1560    20.6710   -14.8140 hn         1 LN7       0.385000
     31 HI1        -27.9620    22.7400   -15.1000 hc         1 LN7       0.040700
     32 HI1A       -27.0780    21.2360   -14.9910 hc         1 LN7       0.040700
     33 HK1        -26.8400    22.6360   -12.9170 hc         1 LN7       0.026367
     34 HK1A       -25.2570    22.3960   -13.6780 hc         1 LN7       0.026367
     35 HK1B       -26.1120    23.9450   -13.8710 hc         1 LN7       0.026367
     36 HT1        -26.2430    23.7750   -16.4970 hc         1 LN7       0.047200
     37 HT1A       -26.8600    22.3210   -17.2370 hc         1 LN7       0.047200
@<TRIPOS>BOND
     1     1     3 1   
     2     1     9 1   
     3     1    10 1   
     4     2     3 1   
     5     2    16 1   
     6     2    17 1   
     7     3     4 1   
     8     3    18 1   
     9     4     7 1   
    10     4    19 1   
    11     4    20 1   
    12     5     6 1   
    13     5     7 1   
    14     5    21 1   
    15     5    22 1   
    16     6     8 1   
    17     6    23 1   
    18     7    24 1   
    19     7    25 1   
    20     8    11 1   
    21     8    12 1   
    22     8    26 1   
    23    11    15 1   
    24    11    27 1   
    25    11    28 1   
    26    12    29 1   
    27    12    30 1   
    28    13    14 1   
    29    13    15 1   
    30    13    31 1   
    31    13    32 1   
    32    14    33 1   
    33    14    34 1   
    34    14    35 1   
    35    15    36 1   
    36    15    37 1   
@<TRIPOS>SUBSTRUCTURE
     1 LN7         1 TEMP              0 ****  ****    0 ROOT
