@<TRIPOS>MOLECULE
LN7
   37    36     1     0     0
SMALL
abcg2


@<TRIPOS>ATOM
      1 C          -28.7190    19.1290   -21.6010 c          1 LN7       0.709000
      2 N          -27.0940    19.3250   -23.4780 n8         1 LN7      -0.976200
      3 CA         -27.2600    18.8960   -22.0770 c3         1 LN7       0.026500
      4 CB         -26.2770    19.6780   -21.2050 c3         1 LN7      -0.050400
      5 CD         -25.3220    20.1060   -18.9020 c3         1 LN7       0.160800
      6 NE         -25.4260    19.7750   -17.4820 n7         1 LN7      -0.857400
      7 CG         -26.3050    19.2900   -19.7300 c3         1 LN7      -0.077400
      8 CZ         -24.5290    20.5370   -16.6180 c3         1 LN7       0.392700
      9 OA1        -29.3100    18.1350   -21.1010 o          1 LN7      -0.729500
     10 OA2        -29.1970    20.2840   -21.7240 o          1 LN7      -0.729500
     11 CH1        -24.7420    22.0700   -16.6530 c3         1 LN7      -0.147400
     12 NH2        -24.5820    19.9390   -15.2740 n8         1 LN7      -0.983200
     13 CI1        -26.9240    22.3670   -15.2260 c3         1 LN7      -0.079400
     14 CK1        -26.2370    22.9870   -14.0120 c3         1 LN7      -0.088100
     15 CT1        -26.1830    22.5880   -16.5500 c3         1 LN7      -0.078400
     16 HN         -26.1510    19.0980   -23.7810 hn         1 LN7       0.362500
     17 HNA        -27.7140    18.7860   -24.0750 hn         1 LN7       0.362500
     18 HA         -27.0580    17.8250   -21.9530 h1         1 LN7       0.005700
     19 HB         -25.2670    19.5250   -21.6020 hc         1 LN7       0.024200
     20 HBA        -26.5030    20.7430   -21.3110 hc         1 LN7       0.024200
     21 HD         -24.2970    19.8920   -19.2230 h1         1 LN7       0.019700
     22 HDA        -25.4970    21.1720   -19.1030 h1         1 LN7       0.019700
     23 HNE        -26.3850    19.9240   -17.1810 hn         1 LN7       0.410000
     24 HG         -27.3130    19.4460   -19.3300 hc         1 LN7       0.057700
     25 HGA        -26.0830    18.2250   -19.6140 hc         1 LN7       0.057700
     26 HZ         -23.5150    20.3580   -16.9930 h2         1 LN7       0.061700
     27 HH1        -24.1210    22.5120   -15.8690 hc         1 LN7       0.037200
     28 HH1A       -24.3300    22.4390   -17.5970 hc         1 LN7       0.037200
     29 HNH2       -24.0030    20.4870   -14.6450 hn         1 LN7       0.385000
     30 HNHA       -25.5240    20.0070   -14.9040 hn         1 LN7       0.385000
     31 HI1        -27.9240    22.8020   -15.3280 hc         1 LN7       0.040700
     32 HI1A       -27.0880    21.3000   -15.0530 hc         1 LN7       0.040700
     33 HK1        -26.8490    22.8740   -13.1140 hc         1 LN7       0.026367
     34 HK1A       -25.2700    22.5220   -13.8130 hc         1 LN7       0.026367
     35 HK1B       -26.0640    24.0560   -14.1670 hc         1 LN7       0.026367
     36 HT1        -26.1580    23.6650   -16.7470 hc         1 LN7       0.047200
     37 HT1A       -26.7780    22.1540   -17.3590 hc         1 LN7       0.047200
@<TRIPOS>BOND
     1     1     3 1   
     2     1     9 1   
     3     1    10 1   
     4     2     3 1   
     5     2    16 1   
     6     2    17 1   
     7     3     4 1   
     8     3    18 1   
     9     4     7 1   
    10     4    19 1   
    11     4    20 1   
    12     5     6 1   
    13     5     7 1   
    14     5    21 1   
    15     5    22 1   
    16     6     8 1   
    17     6    23 1   
    18     7    24 1   
    19     7    25 1   
    20     8    11 1   
    21     8    12 1   
    22     8    26 1   
    23    11    15 1   
    24    11    27 1   
    25    11    28 1   
    26    12    29 1   
    27    12    30 1   
    28    13    14 1   
    29    13    15 1   
    30    13    31 1   
    31    13    32 1   
    32    14    33 1   
    33    14    34 1   
    34    14    35 1   
    35    15    36 1   
    36    15    37 1   
@<TRIPOS>SUBSTRUCTURE
     1 LN7         1 TEMP              0 ****  ****    0 ROOT
