@<TRIPOS>MOLECULE
LN9
   55    57     1     0     0
SMALL
No Charge or Current Charge


@<TRIPOS>ATOM
      1 C1          86.2280    68.2620    69.9130 ca         1 LN9      -0.067500
      2 C2          86.8690    67.3320    69.0780 ca         1 LN9      -0.175000
      3 C3          86.4520    65.9930    69.0640 ca         1 LN9       0.137100
      4 C4          85.3910    65.5800    69.8860 ca         1 LN9      -0.175000
      5 C5          84.7470    66.5080    70.7230 ca         1 LN9      -0.067500
      6 C6          85.1640    67.8540    70.7420 ca         1 LN9      -0.120300
      7 C7          84.4690    68.8650    71.6440 c3         1 LN9      -0.016100
      8 C8          83.4280    69.7060    70.8700 c3         1 LN9      -0.179400
      9 C9          82.7480    70.7710    71.7450 c          1 LN9       0.585700
     10 O1          82.0210    70.4270    72.6690 o          1 LN9      -0.484100
     11 C10         82.8440    72.2290    71.3760 ca         1 LN9      -0.288600
     12 C11         81.6860    73.0350    71.4040 ca         1 LN9       0.212100
     13 C12         81.7340    74.3710    70.9920 ca         1 LN9      -0.204000
     14 C13         82.9360    74.9270    70.5540 ca         1 LN9       0.198100
     15 C14         84.1000    74.1560    70.5500 ca         1 LN9      -0.278000
     16 C15         84.0650    72.8220    70.9840 ca         1 LN9       0.235100
     17 O2          85.2390    72.1120    71.0060 os         1 LN9      -0.338100
     18 C16         86.0870    72.1950    72.1750 c6         1 LN9       0.421300
     19 C17         86.7340    73.6100    72.3830 c6         1 LN9       0.113300
     20 C18         87.6050    73.5710    73.6700 c6         1 LN9       0.130300
     21 C19         86.7610    73.1020    74.8930 c6         1 LN9       0.100300
     22 C20         86.1040    71.7210    74.5580 c6         1 LN9       0.156300
     23 O3          85.3190    71.8410    73.3450 os         1 LN9      -0.451000
     24 C21         85.1640    71.1950    75.6910 c3         1 LN9       0.172600
     25 O4          84.5400    69.9380    75.3690 oh         1 LN9      -0.692000
     26 O5          87.6050    73.0390    76.0640 oh         1 LN9      -0.720000
     27 O6          88.1830    74.8620    73.9280 oh         1 LN9      -0.666000
     28 O7          87.5450    74.0460    71.2670 oh         1 LN9      -0.698000
     29 O8          82.9730    76.2230    70.1420 oh         1 LN9      -0.527100
     30 O9          80.4900    72.5310    71.8180 oh         1 LN9      -0.541100
     31 O10         87.0800    65.0990    68.2500 oh         1 LN9      -0.535100
     32 H1          86.5550    69.3000    69.9160 ha         1 LN9       0.115000
     33 H2          87.6900    67.6510    68.4400 ha         1 LN9       0.120000
     34 H3          85.0600    64.5440    69.8810 ha         1 LN9       0.120000
     35 H4          83.9240    66.1820    71.3560 ha         1 LN9       0.115000
     36 H5          83.9720    68.3540    72.4790 hc         1 LN9       0.057200
     37 H6          85.2160    69.5210    72.0990 hc         1 LN9       0.057200
     38 H7          83.9050    70.1780    70.0040 hc         1 LN9       0.064200
     39 H8          82.6510    69.0240    70.5050 hc         1 LN9       0.064200
     40 H9          80.8320    74.9760    71.0070 ha         1 LN9       0.147000
     41 H10         85.0400    74.5840    70.2150 ha         1 LN9       0.130000
     42 H11         86.9010    71.4650    72.0480 h2         1 LN9       0.084700
     43 H12         85.9230    74.3320    72.5540 h1         1 LN9       0.051700
     44 H13         88.4090    72.8340    73.5160 h1         1 LN9       0.057700
     45 H14         85.9530    73.8330    75.0510 h1         1 LN9       0.055700
     46 H15         86.8930    70.9710    74.3990 h1         1 LN9       0.070700
     47 H16         85.7530    71.0880    76.6120 h1         1 LN9       0.023200
     48 H17         84.3960    71.9570    75.8800 h1         1 LN9       0.023200
     49 H18         83.8800    69.7550    76.0770 ho         1 LN9       0.502000
     50 H19         87.0300    73.1560    76.8580 ho         1 LN9       0.512000
     51 H20         88.4810    74.8200    74.8670 ho         1 LN9       0.464000
     52 H21         88.1300    74.7480    71.6410 ho         1 LN9       0.520000
     53 H22         83.8910    76.4300    69.8680 ho         1 LN9       0.470000
     54 H23         80.6770    71.6760    72.2690 ho         1 LN9       0.474000
     55 H24         86.6590    64.2210    68.3710 ho         1 LN9       0.464000
@<TRIPOS>BOND
     1     1     2 ar  
     2     1     6 ar  
     3     1    32 1   
     4     2     3 ar  
     5     2    33 1   
     6     3     4 ar  
     7     3    31 1   
     8     4     5 ar  
     9     4    34 1   
    10     5     6 ar  
    11     5    35 1   
    12     6     7 1   
    13     7     8 1   
    14     7    36 1   
    15     7    37 1   
    16     8     9 1   
    17     8    38 1   
    18     8    39 1   
    19     9    10 2   
    20     9    11 1   
    21    11    12 ar  
    22    11    16 ar  
    23    12    13 ar  
    24    12    30 1   
    25    13    14 ar  
    26    13    40 1   
    27    14    15 ar  
    28    14    29 1   
    29    15    16 ar  
    30    15    41 1   
    31    16    17 1   
    32    17    18 1   
    33    18    19 1   
    34    18    23 1   
    35    18    42 1   
    36    19    20 1   
    37    19    28 1   
    38    19    43 1   
    39    20    21 1   
    40    20    27 1   
    41    20    44 1   
    42    21    22 1   
    43    21    26 1   
    44    21    45 1   
    45    22    23 1   
    46    22    24 1   
    47    22    46 1   
    48    24    25 1   
    49    24    47 1   
    50    24    48 1   
    51    25    49 1   
    52    26    50 1   
    53    27    51 1   
    54    28    52 1   
    55    29    53 1   
    56    30    54 1   
    57    31    55 1   
@<TRIPOS>SUBSTRUCTURE
     1 LN9         1 TEMP              0 ****  ****    0 ROOT
