@<TRIPOS>MOLECULE
LN9
   55    57     1     0     0
SMALL
abcg2


@<TRIPOS>ATOM
      1 C1          83.7520    67.5750    68.1180 ca         1 LN9      -0.067500
      2 C2          83.5490    66.4210    67.3780 ca         1 LN9      -0.175000
      3 C3          84.4090    65.3360    67.5330 ca         1 LN9       0.137100
      4 C4          85.4670    65.4310    68.4330 ca         1 LN9      -0.175000
      5 C5          85.6540    66.5960    69.1640 ca         1 LN9      -0.067500
      6 C6          84.8060    67.6880    69.0210 ca         1 LN9      -0.120300
      7 C7          84.9830    68.9310    69.8470 c3         1 LN9      -0.016100
      8 C8          84.2290    68.8140    71.1770 c3         1 LN9      -0.179400
      9 C9          84.3820    70.0040    72.1080 c          1 LN9       0.585700
     10 O1          84.5900    69.8280    73.2860 o          1 LN9      -0.484100
     11 C10         84.3370    71.3750    71.5100 ca         1 LN9      -0.288600
     12 C11         83.3340    71.7880    70.6180 ca         1 LN9       0.212100
     13 C12         83.3980    73.0140    69.9730 ca         1 LN9      -0.204000
     14 C13         84.4900    73.8450    70.1830 ca         1 LN9       0.198100
     15 C14         85.4950    73.4720    71.0720 ca         1 LN9      -0.278000
     16 C15         85.3930    72.2670    71.7470 ca         1 LN9       0.235100
     17 O2          86.3980    71.8670    72.5730 os         1 LN9      -0.338100
     18 C16         86.5200    72.4530    73.8420 c6         1 LN9       0.421300
     19 C17         87.2630    73.7880    73.8420 c6         1 LN9       0.113300
     20 C18         87.3740    74.2570    75.2890 c6         1 LN9       0.130300
     21 C19         85.9910    74.3370    75.9270 c6         1 LN9       0.100300
     22 C20         85.2650    72.9980    75.7530 c6         1 LN9       0.156300
     23 O3          85.2540    72.6350    74.3850 os         1 LN9      -0.451000
     24 C21         83.8280    73.0670    76.2180 c3         1 LN9       0.172600
     25 O4          83.2530    71.7860    76.1360 oh         1 LN9      -0.692000
     26 O5          86.1740    74.6530    77.2890 oh         1 LN9      -0.720000
     27 O6          88.0220    75.5050    75.2780 oh         1 LN9      -0.666000
     28 O7          88.5130    73.5900    73.2420 oh         1 LN9      -0.698000
     29 O8          84.5200    75.0050    69.5130 oh         1 LN9      -0.527100
     30 O9          82.2490    71.0390    70.3350 oh         1 LN9      -0.541100
     31 O10         84.1740    64.2320    66.7930 oh         1 LN9      -0.535100
     32 H1          83.0710    68.4090    67.9840 ha         1 LN9       0.115000
     33 H2          82.7250    66.3580    66.6770 ha         1 LN9       0.120000
     34 H3          86.1490    64.5980    68.5650 ha         1 LN9       0.120000
     35 H4          86.4860    66.6490    69.8570 ha         1 LN9       0.115000
     36 H5          86.0430    69.1020    70.0480 hc         1 LN9       0.057200
     37 H6          84.6290    69.7960    69.2830 hc         1 LN9       0.057200
     38 H7          83.1690    68.6270    70.9760 hc         1 LN9       0.064200
     39 H8          84.5800    67.9370    71.7250 hc         1 LN9       0.064200
     40 H9          82.5990    73.3140    69.3080 ha         1 LN9       0.147000
     41 H10         86.3650    74.1030    71.2050 ha         1 LN9       0.130000
     42 H11         87.1030    71.7230    74.4250 h2         1 LN9       0.084700
     43 H12         86.6640    74.5310    73.2950 h1         1 LN9       0.051700
     44 H13         87.9660    73.5130    75.8480 h1         1 LN9       0.057700
     45 H14         85.4150    75.1180    75.4110 h1         1 LN9       0.055700
     46 H15         85.8000    72.2330    76.3400 h1         1 LN9       0.070700
     47 H16         83.8180    73.4460    77.2470 h1         1 LN9       0.023200
     48 H17         83.2910    73.8000    75.5990 h1         1 LN9       0.023200
     49 H18         82.3490    71.8440    76.4560 ho         1 LN9       0.502000
     50 H19         85.4330    75.1860    77.5930 ho         1 LN9       0.512000
     51 H20         88.2080    75.7570    76.1890 ho         1 LN9       0.464000
     52 H21         89.0100    74.4130    73.2970 ho         1 LN9       0.520000
     53 H22         85.3040    75.5160    69.7450 ho         1 LN9       0.470000
     54 H23         82.0550    70.3970    71.0260 ho         1 LN9       0.474000
     55 H24         84.8330    63.5540    66.9820 ho         1 LN9       0.464000
@<TRIPOS>BOND
     1     1     2 ar  
     2     1     6 ar  
     3     1    32 1   
     4     2     3 ar  
     5     2    33 1   
     6     3     4 ar  
     7     3    31 1   
     8     4     5 ar  
     9     4    34 1   
    10     5     6 ar  
    11     5    35 1   
    12     6     7 1   
    13     7     8 1   
    14     7    36 1   
    15     7    37 1   
    16     8     9 1   
    17     8    38 1   
    18     8    39 1   
    19     9    10 2   
    20     9    11 1   
    21    11    12 ar  
    22    11    16 ar  
    23    12    13 ar  
    24    12    30 1   
    25    13    14 ar  
    26    13    40 1   
    27    14    15 ar  
    28    14    29 1   
    29    15    16 ar  
    30    15    41 1   
    31    16    17 1   
    32    17    18 1   
    33    18    19 1   
    34    18    23 1   
    35    18    42 1   
    36    19    20 1   
    37    19    28 1   
    38    19    43 1   
    39    20    21 1   
    40    20    27 1   
    41    20    44 1   
    42    21    22 1   
    43    21    26 1   
    44    21    45 1   
    45    22    23 1   
    46    22    24 1   
    47    22    46 1   
    48    24    25 1   
    49    24    47 1   
    50    24    48 1   
    51    25    49 1   
    52    26    50 1   
    53    27    51 1   
    54    28    52 1   
    55    29    53 1   
    56    30    54 1   
    57    31    55 1   
@<TRIPOS>SUBSTRUCTURE
     1 LN9         1 TEMP              0 ****  ****    0 ROOT
