@<TRIPOS>MOLECULE
LNA
   53    52     1     0     0
SMALL
No Charge or Current Charge


@<TRIPOS>ATOM
      1 O20          7.4050     3.4530     0.8960 o          1 LNA      -0.742500
      2 C1           7.6220     2.2660     0.7060 c          1 LNA       0.717000
      3 O19          8.4670     1.6280     1.3150 o          1 LNA      -0.742500
      4 C2           6.7430     1.5210    -0.3150 c3         1 LNA      -0.204400
      5 C3           5.4840     0.9480     0.3800 c3         1 LNA      -0.054400
      6 C4           4.5510     0.1830    -0.5850 c3         1 LNA      -0.079400
      7 C5           3.2960    -0.3880     0.1110 c3         1 LNA      -0.075400
      8 C6           2.3650    -1.1530    -0.8550 c3         1 LNA      -0.076400
      9 C7           1.1090    -1.7230    -0.1580 c3         1 LNA      -0.072400
     10 C8           0.1760    -2.4860    -1.1220 c3         1 LNA      -0.061200
     11 C9          -1.0570    -3.0260    -0.4190 c2         1 LNA      -0.107200
     12 C10         -2.2320    -2.3870    -0.2190 c2         1 LNA      -0.188300
     13 N21         -3.3600    -3.0410     0.4640 no         1 LNA       0.661100
     14 O22         -3.5790    -4.2300     0.2000 o          1 LNA      -0.410500
     15 O23         -3.9390    -2.4190     1.3650 o          1 LNA      -0.410500
     16 C11         -2.5340    -0.9520    -0.6470 c3         1 LNA       0.010000
     17 C12         -3.5880    -0.9270    -1.7400 c2         1 LNA      -0.233200
     18 C13         -4.7760    -0.2960    -1.7160 c2         1 LNA      -0.184200
     19 C14         -5.3580     0.5150    -0.5740 c3         1 LNA      -0.046200
     20 C15         -4.9190     1.9940    -0.6280 c3         1 LNA      -0.073400
     21 C16         -5.4910     2.8390     0.5320 c3         1 LNA      -0.076400
     22 C17         -5.0480     4.3170     0.4780 c3         1 LNA      -0.075400
     23 C18         -5.6170     5.1610     1.6350 c3         1 LNA      -0.088100
     24 H2           6.3740     2.2130    -1.0820 hc         1 LNA       0.014700
     25 H2A          7.2800     0.6560    -0.7240 hc         1 LNA       0.014700
     26 H3           5.7940     0.2750     1.1890 hc         1 LNA       0.038700
     27 H3A          4.9240     1.7690     0.8460 hc         1 LNA       0.038700
     28 H4           4.2390     0.8560    -1.3940 hc         1 LNA       0.024200
     29 H4A          5.1100    -0.6400    -1.0500 hc         1 LNA       0.024200
     30 H5           3.6080    -1.0610     0.9200 hc         1 LNA       0.036200
     31 H5A          2.7370     0.4340     0.5750 hc         1 LNA       0.036200
     32 H6           2.0540    -0.4800    -1.6630 hc         1 LNA       0.035200
     33 H6A          2.9240    -1.9750    -1.3190 hc         1 LNA       0.035200
     34 H7           1.4180    -2.3970     0.6500 hc         1 LNA       0.045200
     35 H7A          0.5510    -0.9010     0.3070 hc         1 LNA       0.045200
     36 H8          -0.1070    -1.8270    -1.9510 hc         1 LNA       0.059200
     37 H8A          0.7300    -3.3160    -1.5800 hc         1 LNA       0.059200
     38 H9          -0.9340    -4.0530    -0.0670 ha         1 LNA       0.208000
     39 H11         -2.8350    -0.3530     0.2200 hc         1 LNA       0.072200
     40 H11A        -1.6330    -0.4510    -1.0180 hc         1 LNA       0.072200
     41 H12         -3.2970    -1.4830    -2.6340 ha         1 LNA       0.168000
     42 H13         -5.4320    -0.3570    -2.5870 ha         1 LNA       0.163000
     43 H14         -6.4530     0.4610    -0.6030 hc         1 LNA       0.054200
     44 H14A        -5.0640     0.0880     0.3930 hc         1 LNA       0.054200
     45 H15         -3.8240     2.0440    -0.6040 hc         1 LNA       0.037200
     46 H15A        -5.2390     2.4270    -1.5830 hc         1 LNA       0.037200
     47 H16         -6.5860     2.7900     0.5080 hc         1 LNA       0.039200
     48 H16A        -5.1710     2.4030     1.4870 hc         1 LNA       0.039200
     49 H17         -3.9520     4.3700     0.5030 hc         1 LNA       0.035700
     50 H17A        -5.3680     4.7580    -0.4750 hc         1 LNA       0.035700
     51 H18         -6.7130     5.1570     1.6160 hc         1 LNA       0.030367
     52 H18A        -5.2850     4.7660     2.6030 hc         1 LNA       0.030367
     53 H18B        -5.2760     6.2000     1.5540 hc         1 LNA       0.030367
@<TRIPOS>BOND
     1     1     2 1   
     2     2     3 1   
     3     2     4 1   
     4     4     5 1   
     5     4    24 1   
     6     4    25 1   
     7     5     6 1   
     8     5    26 1   
     9     5    27 1   
    10     6     7 1   
    11     6    28 1   
    12     6    29 1   
    13     7     8 1   
    14     7    30 1   
    15     7    31 1   
    16     8     9 1   
    17     8    32 1   
    18     8    33 1   
    19     9    10 1   
    20     9    34 1   
    21     9    35 1   
    22    10    11 1   
    23    10    36 1   
    24    10    37 1   
    25    11    12 2   
    26    11    38 1   
    27    12    13 1   
    28    12    16 1   
    29    13    14 1   
    30    13    15 1   
    31    16    17 1   
    32    16    39 1   
    33    16    40 1   
    34    17    18 2   
    35    17    41 1   
    36    18    19 1   
    37    18    42 1   
    38    19    20 1   
    39    19    43 1   
    40    19    44 1   
    41    20    21 1   
    42    20    45 1   
    43    20    46 1   
    44    21    22 1   
    45    21    47 1   
    46    21    48 1   
    47    22    23 1   
    48    22    49 1   
    49    22    50 1   
    50    23    51 1   
    51    23    52 1   
    52    23    53 1   
@<TRIPOS>SUBSTRUCTURE
     1 LNA         1 TEMP              0 ****  ****    0 ROOT
