@<TRIPOS>MOLECULE
LNA
   53    52     1     0     0
SMALL
bcc


@<TRIPOS>ATOM
      1 O20          9.6680     1.7170    -0.0550 o          1 LNA      -0.847800
      2 C1           8.7630     1.0440     0.4860 c          1 LNA       0.927600
      3 O19          8.8160     0.5140     1.6130 o          1 LNA      -0.847800
      4 C2           7.4790     0.8590    -0.3410 c3         1 LNA      -0.204400
      5 C3           6.3410     0.1140     0.3380 c3         1 LNA      -0.054400
      6 C4           5.1230    -0.0410    -0.5650 c3         1 LNA      -0.079400
      7 C5           3.9630    -0.7690     0.1000 c3         1 LNA      -0.075400
      8 C6           2.7570    -0.9280    -0.8180 c3         1 LNA      -0.076400
      9 C7           1.5750    -1.6090    -0.1400 c3         1 LNA      -0.072400
     10 C8           0.3830    -1.7710    -1.0890 c3         1 LNA      -0.061200
     11 C9          -0.7660    -2.4160    -0.4010 c2         1 LNA      -0.057200
     12 C10         -1.9380    -1.8450    -0.1170 c2         1 LNA      -0.188300
     13 N21         -2.9150    -2.6510     0.6130 no         1 LNA       0.281100
     14 O22         -2.7530    -3.8480     0.7090 o          1 LNA      -0.220500
     15 O23         -3.8570    -2.0680     1.0990 o          1 LNA      -0.220500
     16 C11         -2.3890    -0.4590    -0.4630 c3         1 LNA       0.010000
     17 C12         -3.4590    -0.4710    -1.5170 c2         1 LNA      -0.183200
     18 C13         -4.6860     0.0350    -1.4190 c2         1 LNA      -0.134200
     19 C14         -5.2960     0.7480    -0.2550 c3         1 LNA      -0.046200
     20 C15         -5.7450     2.1620    -0.6260 c3         1 LNA      -0.073400
     21 C16         -6.4140     2.8930     0.5300 c3         1 LNA      -0.076400
     22 C17         -6.8730     4.3000     0.1650 c3         1 LNA      -0.075400
     23 C18         -7.5410     5.0240     1.3260 c3         1 LNA      -0.088100
     24 H2           7.1300     1.8490    -0.6590 hc         1 LNA       0.014700
     25 H2A          7.7470     0.3450    -1.2720 hc         1 LNA       0.014700
     26 H3           6.6830    -0.8760     0.6550 hc         1 LNA       0.038700
     27 H3A          6.0480     0.6370     1.2530 hc         1 LNA       0.038700
     28 H4           4.7850     0.9490    -0.8940 hc         1 LNA       0.024200
     29 H4A          5.4110    -0.5760    -1.4770 hc         1 LNA       0.024200
     30 H5           4.2970    -1.7570     0.4370 hc         1 LNA       0.036200
     31 H5A          3.6640    -0.2260     1.0040 hc         1 LNA       0.036200
     32 H6           2.4450     0.0570    -1.1790 hc         1 LNA       0.035200
     33 H6A          3.0490    -1.5000    -1.7050 hc         1 LNA       0.035200
     34 H7           1.8780    -2.5900     0.2380 hc         1 LNA       0.045200
     35 H7A          1.2660    -1.0230     0.7300 hc         1 LNA       0.045200
     36 H8           0.1160    -0.8040    -1.5160 hc         1 LNA       0.059200
     37 H8A          0.6820    -2.4110    -1.9260 hc         1 LNA       0.059200
     38 H9          -0.5970    -3.4370    -0.0780 ha         1 LNA       0.158000
     39 H11         -2.7060     0.0760     0.4320 hc         1 LNA       0.072200
     40 H11A        -1.5240     0.0850    -0.8460 hc         1 LNA       0.072200
     41 H12         -3.1710    -0.9460    -2.4510 ha         1 LNA       0.118000
     42 H13         -5.3310    -0.0540    -2.2910 ha         1 LNA       0.113000
     43 H14         -6.1680     0.1820     0.0900 hc         1 LNA       0.054200
     44 H14A        -4.6070     0.7940     0.5900 hc         1 LNA       0.054200
     45 H15         -4.8790     2.7370    -0.9700 hc         1 LNA       0.037200
     46 H15A        -6.4360     2.1130    -1.4740 hc         1 LNA       0.037200
     47 H16         -7.2740     2.3110     0.8800 hc         1 LNA       0.039200
     48 H16A        -5.7200     2.9480     1.3760 hc         1 LNA       0.039200
     49 H17         -6.0140     4.8800    -0.1860 hc         1 LNA       0.035700
     50 H17A        -7.5660     4.2450    -0.6790 hc         1 LNA       0.035700
     51 H18         -8.4270     4.4840     1.6660 hc         1 LNA       0.030367
     52 H18A        -6.8640     5.1150     2.1770 hc         1 LNA       0.030367
     53 H18B        -7.8560     6.0290     1.0440 hc         1 LNA       0.030367
@<TRIPOS>BOND
     1     1     2 1   
     2     2     3 1   
     3     2     4 1   
     4     4     5 1   
     5     4    24 1   
     6     4    25 1   
     7     5     6 1   
     8     5    26 1   
     9     5    27 1   
    10     6     7 1   
    11     6    28 1   
    12     6    29 1   
    13     7     8 1   
    14     7    30 1   
    15     7    31 1   
    16     8     9 1   
    17     8    32 1   
    18     8    33 1   
    19     9    10 1   
    20     9    34 1   
    21     9    35 1   
    22    10    11 1   
    23    10    36 1   
    24    10    37 1   
    25    11    12 2   
    26    11    38 1   
    27    12    13 1   
    28    12    16 1   
    29    13    14 1   
    30    13    15 1   
    31    16    17 1   
    32    16    39 1   
    33    16    40 1   
    34    17    18 2   
    35    17    41 1   
    36    18    19 1   
    37    18    42 1   
    38    19    20 1   
    39    19    43 1   
    40    19    44 1   
    41    20    21 1   
    42    20    45 1   
    43    20    46 1   
    44    21    22 1   
    45    21    47 1   
    46    21    48 1   
    47    22    23 1   
    48    22    49 1   
    49    22    50 1   
    50    23    51 1   
    51    23    52 1   
    52    23    53 1   
@<TRIPOS>SUBSTRUCTURE
     1 LNA         1 TEMP              0 ****  ****    0 ROOT
