@<TRIPOS>MOLECULE
LNB
   53    52     1     0     0
SMALL
No Charge or Current Charge


@<TRIPOS>ATOM
      1 O20         -8.5310    -2.1700    -0.0110 o          1 LNB      -0.744000
      2 C1          -7.6580    -2.2430    -0.8630 c          1 LNB       0.717000
      3 O19         -7.4270    -3.2560    -1.5070 o          1 LNB      -0.744000
      4 C2          -6.7640    -1.0120    -1.0970 c3         1 LNB      -0.204400
      5 C3          -5.5350    -1.0570    -0.1570 c3         1 LNB      -0.053400
      6 C4          -4.5880     0.1510    -0.3350 c3         1 LNB      -0.079400
      7 C5          -3.3630     0.1030     0.6040 c3         1 LNB      -0.074400
      8 C6          -2.4180     1.3120     0.4270 c3         1 LNB      -0.076400
      9 C7          -1.1920     1.2630     1.3660 c3         1 LNB      -0.073400
     10 C8          -0.2450     2.4680     1.1890 c3         1 LNB      -0.053200
     11 C9           0.9560     2.3930     2.1130 c2         1 LNB      -0.160200
     12 C10          2.1270     1.7770     1.8720 c2         1 LNB      -0.258200
     13 C11          2.5160     0.9830     0.6360 c3         1 LNB       0.011000
     14 C12          3.7680     1.5710    -0.0130 c2         1 LNB      -0.169300
     15 N21          3.5520     2.9080    -0.5900 no         1 LNB       0.658100
     16 O22          2.5520     3.0880    -1.2980 o          1 LNB      -0.403000
     17 O23          4.4540     3.7450    -0.4510 o          1 LNB      -0.403000
     18 C13          4.9680     0.9510    -0.0820 c2         1 LNB      -0.130200
     19 C14          5.3370    -0.4100     0.4820 c3         1 LNB      -0.055200
     20 C15          5.0360    -1.5530    -0.5100 c3         1 LNB      -0.073400
     21 C16          5.3900    -2.9490     0.0470 c3         1 LNB      -0.076400
     22 C17          5.0850    -4.0910    -0.9460 c3         1 LNB      -0.074400
     23 C18          5.4370    -5.4840    -0.3910 c3         1 LNB      -0.089100
     24 H2          -6.3620    -1.0180    -2.1180 hc         1 LNB       0.014700
     25 H2A         -7.3040    -0.0920    -0.8410 hc         1 LNB       0.014700
     26 H3          -5.8790    -1.0950     0.8840 hc         1 LNB       0.037700
     27 H3A         -4.9750    -1.9830    -0.3410 hc         1 LNB       0.037700
     28 H4          -4.2420     0.1880    -1.3750 hc         1 LNB       0.024700
     29 H4A         -5.1470     1.0770    -0.1490 hc         1 LNB       0.024700
     30 H5          -3.7080     0.0660     1.6450 hc         1 LNB       0.033200
     31 H5A         -2.8030    -0.8220     0.4190 hc         1 LNB       0.033200
     32 H6          -2.0730     1.3490    -0.6140 hc         1 LNB       0.034700
     33 H6A         -2.9770     2.2370     0.6130 hc         1 LNB       0.034700
     34 H7          -1.5350     1.2270     2.4070 hc         1 LNB       0.035700
     35 H7A         -0.6330     0.3380     1.1810 hc         1 LNB       0.035700
     36 H8           0.0760     2.5230     0.1420 hc         1 LNB       0.054700
     37 H8A         -0.7990     3.3960     1.3790 hc         1 LNB       0.054700
     38 H9           0.8120     2.9210     3.0590 ha         1 LNB       0.166000
     39 H10          2.9120     1.8080     2.6300 ha         1 LNB       0.160000
     40 H11          2.6720    -0.0620     0.9250 hc         1 LNB       0.070700
     41 H11A         1.6970     0.9390    -0.0920 hc         1 LNB       0.070700
     42 H13          5.8050     1.4500    -0.5760 ha         1 LNB       0.207000
     43 H14          6.4050    -0.4250     0.7370 hc         1 LNB       0.059700
     44 H14A         4.8070    -0.5960     1.4240 hc         1 LNB       0.059700
     45 H15          3.9710    -1.5290    -0.7730 hc         1 LNB       0.045200
     46 H15A         5.5960    -1.3800    -1.4370 hc         1 LNB       0.045200
     47 H16          6.4550    -2.9730     0.3080 hc         1 LNB       0.039700
     48 H16A         4.8290    -3.1200     0.9750 hc         1 LNB       0.039700
     49 H17          4.0200    -4.0710    -1.2080 hc         1 LNB       0.038200
     50 H17A         5.6460    -3.9250    -1.8750 hc         1 LNB       0.038200
     51 H18          5.2040    -6.2600    -1.1300 hc         1 LNB       0.032367
     52 H18A         6.5050    -5.5480    -0.1520 hc         1 LNB       0.032367
     53 H18B         4.8640    -5.6950     0.5200 hc         1 LNB       0.032367
@<TRIPOS>BOND
     1     1     2 1   
     2     2     3 1   
     3     2     4 1   
     4     4     5 1   
     5     4    24 1   
     6     4    25 1   
     7     5     6 1   
     8     5    26 1   
     9     5    27 1   
    10     6     7 1   
    11     6    28 1   
    12     6    29 1   
    13     7     8 1   
    14     7    30 1   
    15     7    31 1   
    16     8     9 1   
    17     8    32 1   
    18     8    33 1   
    19     9    10 1   
    20     9    34 1   
    21     9    35 1   
    22    10    11 1   
    23    10    36 1   
    24    10    37 1   
    25    11    12 2   
    26    11    38 1   
    27    12    13 1   
    28    12    39 1   
    29    13    14 1   
    30    13    40 1   
    31    13    41 1   
    32    14    15 1   
    33    14    18 2   
    34    15    16 1   
    35    15    17 1   
    36    18    19 1   
    37    18    42 1   
    38    19    20 1   
    39    19    43 1   
    40    19    44 1   
    41    20    21 1   
    42    20    45 1   
    43    20    46 1   
    44    21    22 1   
    45    21    47 1   
    46    21    48 1   
    47    22    23 1   
    48    22    49 1   
    49    22    50 1   
    50    23    51 1   
    51    23    52 1   
    52    23    53 1   
@<TRIPOS>SUBSTRUCTURE
     1 LNB         1 TEMP              0 ****  ****    0 ROOT
