@<TRIPOS>MOLECULE
LNB
   53    52     1     0     0
SMALL
abcg2


@<TRIPOS>ATOM
      1 O20        -10.3130     0.0900    -0.8650 o          1 LNB      -0.744000
      2 C1          -9.3240    -0.2990    -0.2080 c          1 LNB       0.717000
      3 O19         -9.3380    -1.1350     0.7180 o          1 LNB      -0.744000
      4 C2          -7.9710     0.3190    -0.6020 c3         1 LNB      -0.204400
      5 C3          -6.7690    -0.0970     0.2290 c3         1 LNB      -0.053400
      6 C4          -5.4770     0.5660    -0.2360 c3         1 LNB      -0.079400
      7 C5          -4.2690     0.2040     0.6190 c3         1 LNB      -0.074400
      8 C6          -2.9820     0.8820     0.1650 c3         1 LNB      -0.076400
      9 C7          -1.7970     0.5760     1.0720 c3         1 LNB      -0.073400
     10 C8          -0.5130     1.2930     0.6520 c3         1 LNB      -0.053200
     11 C9           0.5900     1.0690     1.6370 c2         1 LNB      -0.160200
     12 C10          1.8030     0.5700     1.4170 c2         1 LNB      -0.258200
     13 C11          2.3830     0.1220     0.1050 c3         1 LNB       0.011000
     14 C12          3.6000     0.9230    -0.2470 c2         1 LNB      -0.169300
     15 N21          3.3460     2.2340    -0.8400 no         1 LNB       0.658100
     16 O22          2.1910     2.5420    -1.0270 o          1 LNB      -0.403000
     17 O23          4.2770     2.9570    -1.1190 o          1 LNB      -0.403000
     18 C13          4.8720     0.5880    -0.0220 c2         1 LNB      -0.130200
     19 C14          5.3450    -0.6820     0.5890 c3         1 LNB      -0.055200
     20 C15          6.1540    -1.5150    -0.4100 c3         1 LNB      -0.073400
     21 C16          6.6900    -2.7980     0.2120 c3         1 LNB      -0.076400
     22 C17          7.5040    -3.6360    -0.7650 c3         1 LNB      -0.074400
     23 C18          8.0240    -4.9260    -0.1450 c3         1 LNB      -0.089100
     24 H2          -7.7880     0.0800    -1.6570 hc         1 LNB       0.014700
     25 H2A         -8.0740     1.4110    -0.5780 hc         1 LNB       0.014700
     26 H3          -6.9400     0.1510     1.2810 hc         1 LNB       0.037700
     27 H3A         -6.6510    -1.1840     0.1940 hc         1 LNB       0.037700
     28 H4          -5.2830     0.2930    -1.2800 hc         1 LNB       0.024700
     29 H4A         -5.6060     1.6550    -0.2300 hc         1 LNB       0.024700
     30 H5          -4.4690     0.4780     1.6610 hc         1 LNB       0.033200
     31 H5A         -4.1300    -0.8820     0.6130 hc         1 LNB       0.033200
     32 H6          -2.7500     0.5790    -0.8620 hc         1 LNB       0.034700
     33 H6A         -3.1370     1.9660     0.1330 hc         1 LNB       0.034700
     34 H7          -2.0480     0.8630     2.0990 hc         1 LNB       0.035700
     35 H7A         -1.6180    -0.5040     1.0930 hc         1 LNB       0.035700
     36 H8          -0.2230     0.9820    -0.3530 hc         1 LNB       0.054700
     37 H8A         -0.7160     2.3690     0.5940 hc         1 LNB       0.054700
     38 H9           0.3470     1.3410     2.6610 ha         1 LNB       0.166000
     39 H10          2.4760     0.4710     2.2650 ha         1 LNB       0.160000
     40 H11          2.6880    -0.9230     0.1840 hc         1 LNB       0.070700
     41 H11A         1.6480     0.1590    -0.6970 hc         1 LNB       0.070700
     42 H13          5.6530     1.2820    -0.3120 ha         1 LNB       0.207000
     43 H14          5.9890    -0.4240     1.4370 hc         1 LNB       0.059700
     44 H14A         4.5230    -1.2750     0.9920 hc         1 LNB       0.059700
     45 H15          5.5240    -1.7580    -1.2700 hc         1 LNB       0.045200
     46 H15A         6.9860    -0.9160    -0.7950 hc         1 LNB       0.045200
     47 H16          7.3060    -2.5500     1.0830 hc         1 LNB       0.039700
     48 H16A         5.8530    -3.3930     0.5920 hc         1 LNB       0.039700
     49 H17          6.8900    -3.8720    -1.6390 hc         1 LNB       0.038200
     50 H17A         8.3460    -3.0450    -1.1380 hc         1 LNB       0.038200
     51 H18          8.5840    -5.5190    -0.8690 hc         1 LNB       0.032367
     52 H18A         8.6850    -4.7220     0.6980 hc         1 LNB       0.032367
     53 H18B         7.2030    -5.5450     0.2240 hc         1 LNB       0.032367
@<TRIPOS>BOND
     1     1     2 1   
     2     2     3 1   
     3     2     4 1   
     4     4     5 1   
     5     4    24 1   
     6     4    25 1   
     7     5     6 1   
     8     5    26 1   
     9     5    27 1   
    10     6     7 1   
    11     6    28 1   
    12     6    29 1   
    13     7     8 1   
    14     7    30 1   
    15     7    31 1   
    16     8     9 1   
    17     8    32 1   
    18     8    33 1   
    19     9    10 1   
    20     9    34 1   
    21     9    35 1   
    22    10    11 1   
    23    10    36 1   
    24    10    37 1   
    25    11    12 2   
    26    11    38 1   
    27    12    13 1   
    28    12    39 1   
    29    13    14 1   
    30    13    40 1   
    31    13    41 1   
    32    14    15 1   
    33    14    18 2   
    34    15    16 1   
    35    15    17 1   
    36    18    19 1   
    37    18    42 1   
    38    19    20 1   
    39    19    43 1   
    40    19    44 1   
    41    20    21 1   
    42    20    45 1   
    43    20    46 1   
    44    21    22 1   
    45    21    47 1   
    46    21    48 1   
    47    22    23 1   
    48    22    49 1   
    49    22    50 1   
    50    23    51 1   
    51    23    52 1   
    52    23    53 1   
@<TRIPOS>SUBSTRUCTURE
     1 LNB         1 TEMP              0 ****  ****    0 ROOT
