@<TRIPOS>MOLECULE
LNC
   82    86     1     0     0
SMALL
No Charge or Current Charge


@<TRIPOS>ATOM
      1 N7N          8.5770    26.3550     3.0550 nt         1 LNC      -0.608000
      2 C7N          9.2250    25.2010     3.3240 c          1 LNC       0.627700
      3 O7N          9.2280    24.3120     2.4890 o          1 LNC      -0.572100
      4 C3N          9.9270    25.0660     4.6530 ca         1 LNC      -0.192600
      5 C4N         10.5860    23.8580     4.9640 ca         1 LNC       0.035000
      6 C5N         11.2360    23.7120     6.2010 ca         1 LNC      -0.048300
      7 CGS         11.9430    22.4090     6.5630 c3         1 LNC      -0.029100
      8 CBS         11.0770    21.4780     7.4480 c3         1 LNC      -0.087400
      9 CAS          9.8190    20.8930     6.7510 c3         1 LNC       0.032300
     10 OAS          9.0260    20.1990     7.7440 oh         1 LNC      -0.674000
     11 CS          10.1920    19.9410     5.5510 c          1 LNC       0.686000
     12 O1S         10.2920    18.7440     5.7910 o          1 LNC      -0.739000
     13 O2S         10.2120    20.3990     4.4170 o          1 LNC      -0.739000
     14 C6N         11.2330    24.7850     7.1120 ca         1 LNC       0.010700
     15 N1N         10.6070    26.0090     6.8380 na         1 LNC       0.061300
     16 C2N          9.9460    26.1130     5.6060 ca         1 LNC      -0.078000
     17 C1D         10.6370    27.1260     7.7930 c5         1 LNC       0.267300
     18 O4D         11.9780    27.2970     8.3330 os         1 LNC      -0.458000
     19 C4D         11.8880    27.7650     9.7180 c5         1 LNC       0.145300
     20 C5D         12.5060    26.7130    10.7100 c3         1 LNC       0.234600
     21 O5D         11.8780    25.4310    10.5390 os         1 LNC      -0.631400
     22 PN          11.1010    24.6690    11.7300 p5         1 LNC       1.462800
     23 O1N         10.5960    23.3840    11.1730 o          1 LNC      -0.818000
     24 O2N         11.9920    24.4790    12.9100 o          1 LNC      -0.818000
     25 O3          10.0000    25.7630    12.0050 os         1 LNC      -0.756800
     26 PA           8.4920    25.3330    12.1270 p5         1 LNC       1.505800
     27 O1A          7.7630    25.5690    10.8460 o          1 LNC      -0.833500
     28 O2A          8.2490    23.9880    12.7190 o          1 LNC      -0.833500
     29 O5B          8.0720    26.4280    13.2310 os         1 LNC      -0.612400
     30 C5B          7.7120    27.7800    12.8960 c3         1 LNC       0.241600
     31 C4B          6.2120    27.9060    12.4730 c5         1 LNC       0.163300
     32 O4B          6.0730    28.0040    11.0420 os         1 LNC      -0.429000
     33 C1B          4.6950    27.7220    10.7010 c5         1 LNC       0.326300
     34 C2B          4.0090    27.1340    11.9970 c5         1 LNC       0.085300
     35 O2B          3.2390    28.0990    12.7300 oh         1 LNC      -0.719000
     36 C3B          5.2450    26.7410    12.8570 c5         1 LNC       0.096300
     37 O3B          4.9060    26.6980    14.2590 oh         1 LNC      -0.719000
     38 N9A          4.6810    26.8870     9.5010 na         1 LNC      -0.307300
     39 C8A          4.9230    25.5070     9.4590 cc         1 LNC       0.464700
     40 N7A          4.7160    25.0110     8.2200 nd         1 LNC      -0.554100
     41 C5A          4.3530    26.1390     7.4770 ca         1 LNC      -0.082600
     42 C6A          4.0140    26.2450     6.1110 ca         1 LNC       0.438900
     43 N6A          3.9920    25.1770     5.2690 nv         1 LNC      -1.072900
     44 N1A          3.6710    27.4260     5.5690 nb         1 LNC      -0.325000
     45 C2A          3.6800    28.4910     6.4090 ca         1 LNC       0.151900
     46 N3A          3.9920    28.4820     7.7270 nb         1 LNC      -0.220000
     47 C4A          4.3300    27.2800     8.2400 ca         1 LNC       0.093500
     48 C3D         10.3710    28.0660     9.9490 c5         1 LNC       0.110300
     49 O3D          9.9570    29.3680     9.4990 oh         1 LNC      -0.749000
     50 C2D          9.7410    26.9600     9.0540 c5         1 LNC       0.117300
     51 O2D          8.3240    27.1360     8.8880 oh         1 LNC      -0.786000
     52 HN71         8.1040    26.4550     2.1700 hn         1 LNC       0.314000
     53 HN72         8.5590    27.1020     3.7320 hn         1 LNC       0.314000
     54 H4          10.5880    23.0330     4.2520 ha         1 LNC       0.215000
     55 HGS1        12.2590    21.8740     5.6590 hc         1 LNC       0.066200
     56 HGS2        12.8700    22.6360     7.1040 hc         1 LNC       0.066200
     57 HBS1        11.7020    20.6480     7.8020 hc         1 LNC       0.080200
     58 HBS2        10.7660    22.0330     8.3420 hc         1 LNC       0.080200
     59 HAS          9.2300    21.7270     6.3470 h1         1 LNC       0.008700
     60 H1           9.1830    19.2400     7.5680 ho         1 LNC       0.464000
     61 H6          11.7420    24.6980     8.0740 h4         1 LNC       0.236000
     62 H2           9.4440    27.0630     5.4180 h4         1 LNC       0.147000
     63 H17         10.3510    28.0280     7.2400 h2         1 LNC       0.072700
     64 H16         12.4770    28.6880     9.8130 h1         1 LNC       0.065700
     65 H5'1        13.5820    26.6340    10.5100 h1         1 LNC       0.036700
     66 H5'2        12.3880    27.0830    11.7370 h1         1 LNC       0.036700
     67 H11          7.8700    28.4200    13.7740 h1         1 LNC       0.028200
     68 H12          8.3440    28.1760    12.0940 h1         1 LNC       0.028200
     69 H5           5.8440    28.8520    12.8940 h1         1 LNC       0.046700
     70 H7           4.1880    28.6560    10.4230 h2         1 LNC       0.102700
     71 H18          3.3910    26.2550    11.7640 h1         1 LNC       0.065700
     72 H8           3.4900    27.9000    13.6700 ho         1 LNC       0.515000
     73 H3           5.6430    25.7730    12.5200 h1         1 LNC       0.103700
     74 H9           5.7000    26.3490    14.7360 ho         1 LNC       0.512000
     75 H10          5.2250    24.9380    10.3320 h5         1 LNC       0.137800
     76 HN61         3.4630    25.2630     4.4060 hn         1 LNC       0.500500
     77 HN62         4.0300    24.2520     5.6920 hn         1 LNC       0.500500
     78 H111         3.4040    29.4540     5.9800 h5         1 LNC       0.025100
     79 H122        10.1180    27.9370    11.0080 h1         1 LNC       0.107700
     80 H13          9.0330    29.2280     9.1740 ho         1 LNC       0.521000
     81 H14          9.9160    25.9570     9.4540 h1         1 LNC       0.115700
     82 H15          7.9220    26.5590     9.6300 ho         1 LNC       0.621000
@<TRIPOS>BOND
     1     1     2 1   
     2     1    52 1   
     3     1    53 1   
     4     2     3 2   
     5     2     4 1   
     6     4     5 ar  
     7     4    16 ar  
     8     5     6 ar  
     9     5    54 1   
    10     6     7 1   
    11     6    14 ar  
    12     7     8 1   
    13     7    55 1   
    14     7    56 1   
    15     8     9 1   
    16     8    57 1   
    17     8    58 1   
    18     9    10 1   
    19     9    11 1   
    20     9    59 1   
    21    10    60 1   
    22    11    12 1   
    23    11    13 1   
    24    14    15 2   
    25    14    61 1   
    26    15    16 1   
    27    15    17 1   
    28    16    62 1   
    29    17    18 1   
    30    17    50 1   
    31    17    63 1   
    32    18    19 1   
    33    19    20 1   
    34    19    48 1   
    35    19    64 1   
    36    20    21 1   
    37    20    65 1   
    38    20    66 1   
    39    21    22 1   
    40    22    23 1   
    41    22    24 1   
    42    22    25 1   
    43    25    26 1   
    44    26    27 1   
    45    26    28 1   
    46    26    29 1   
    47    29    30 1   
    48    30    31 1   
    49    30    67 1   
    50    30    68 1   
    51    31    32 1   
    52    31    36 1   
    53    31    69 1   
    54    32    33 1   
    55    33    34 1   
    56    33    38 1   
    57    33    70 1   
    58    34    35 1   
    59    34    36 1   
    60    34    71 1   
    61    35    72 1   
    62    36    37 1   
    63    36    73 1   
    64    37    74 1   
    65    38    39 1   
    66    38    47 1   
    67    39    40 2   
    68    39    75 1   
    69    40    41 1   
    70    41    42 ar  
    71    41    47 ar  
    72    42    43 1   
    73    42    44 ar  
    74    43    76 1   
    75    43    77 1   
    76    44    45 ar  
    77    45    46 ar  
    78    45    78 1   
    79    46    47 ar  
    80    48    49 1   
    81    48    50 1   
    82    48    79 1   
    83    49    80 1   
    84    50    51 1   
    85    50    81 1   
    86    51    82 1   
@<TRIPOS>SUBSTRUCTURE
     1 LNC         1 TEMP              0 ****  ****    0 ROOT
