@<TRIPOS>MOLECULE
LNC
   82    86     1     0     0
SMALL
abcg2


@<TRIPOS>ATOM
      1 N7N         13.8020    26.8510     3.2940 nt         1 LNC      -0.608000
      2 C7N         14.0950    25.6370     3.7690 c          1 LNC       0.627700
      3 O7N         14.8080    24.8300     3.1980 o          1 LNC      -0.572100
      4 C3N         13.5010    25.2850     5.1020 ca         1 LNC      -0.192600
      5 C4N         13.3120    23.9480     5.4260 ca         1 LNC       0.035000
      6 C5N         12.7960    23.5880     6.6670 ca         1 LNC      -0.048300
      7 CGS         12.5180    22.1630     7.0400 c3         1 LNC      -0.029100
      8 CBS         11.0940    21.7320     6.6750 c3         1 LNC      -0.087400
      9 CAS         10.7060    21.8190     5.1950 c3         1 LNC       0.032300
     10 OAS          9.3270    21.5690     5.0620 oh         1 LNC      -0.674000
     11 CS          11.4880    20.8100     4.3270 c          1 LNC       0.686000
     12 O1S         10.8000    19.8760     3.8580 o          1 LNC      -0.739000
     13 O2S         12.7090    20.9910     4.1700 o          1 LNC      -0.739000
     14 C6N         12.5040    24.5990     7.5580 ca         1 LNC       0.010700
     15 N1N         12.7010    25.8870     7.2360 na         1 LNC       0.061300
     16 C2N         13.1870    26.2430     6.0430 ca         1 LNC      -0.078000
     17 C1D         12.3140    26.9530     8.1920 c5         1 LNC       0.267300
     18 O4D         12.8710    26.6870     9.4320 os         1 LNC      -0.458000
     19 C4D         11.9240    26.9920    10.4810 c5         1 LNC       0.145300
     20 C5D         11.5650    25.7410    11.2610 c3         1 LNC       0.234600
     21 O5D         11.0310    24.7420    10.4210 os         1 LNC      -0.631400
     22 PN           9.5560    24.0330    10.6200 p5         1 LNC       1.462800
     23 O1N          9.5390    22.9230     9.6280 o          1 LNC      -0.818000
     24 O2N          9.2990    23.8390    12.0790 o          1 LNC      -0.818000
     25 O3           8.5640    25.2610    10.1330 os         1 LNC      -0.756800
     26 PA           7.4510    25.3490     8.9340 p5         1 LNC       1.505800
     27 O1A          8.0780    25.9850     7.7170 o          1 LNC      -0.833500
     28 O2A          6.6670    24.0910     8.8190 o          1 LNC      -0.833500
     29 O5B          6.4510    26.4370     9.6370 os         1 LNC      -0.612400
     30 C5B          6.6810    27.8240     9.6030 c3         1 LNC       0.241600
     31 C4B          5.5270    28.5320    10.2720 c5         1 LNC       0.163300
     32 O4B          4.3150    28.2740     9.5670 os         1 LNC      -0.429000
     33 C1B          3.2360    28.1520    10.4430 c5         1 LNC       0.326300
     34 C2B          3.7560    28.4820    11.8440 c5         1 LNC       0.085300
     35 O2B          3.6010    29.8610    12.0420 oh         1 LNC      -0.719000
     36 C3B          5.2370    28.1100    11.7100 c5         1 LNC       0.096300
     37 O3B          6.0750    28.8060    12.5900 oh         1 LNC      -0.719000
     38 N9A          2.6920    26.8030    10.3650 na         1 LNC      -0.307300
     39 C8A          3.3040    25.6370     9.9880 cc         1 LNC       0.464700
     40 N7A          2.5200    24.6000    10.0620 nd         1 LNC      -0.554100
     41 C5A          1.3280    25.1010    10.5150 ca         1 LNC      -0.082600
     42 C6A          0.0860    24.5090    10.8090 ca         1 LNC       0.438900
     43 N6A         -0.1440    23.2030    10.6630 nv         1 LNC      -1.072900
     44 N1A         -0.9000    25.3030    11.2430 nb         1 LNC      -0.325000
     45 C2A         -0.6710    26.6070    11.3800 ca         1 LNC       0.151900
     46 N3A          0.4450    27.2740    11.1420 nb         1 LNC      -0.220000
     47 C4A          1.4150    26.4700    10.7090 ca         1 LNC       0.093500
     48 C3D         10.7560    27.6630     9.7770 c5         1 LNC       0.110300
     49 O3D         11.0180    29.0410     9.6600 oh         1 LNC      -0.749000
     50 C2D         10.8040    26.9910     8.4070 c5         1 LNC       0.117300
     51 O2D         10.1080    27.6380     7.3990 oh         1 LNC      -0.786000
     52 HN71        14.1680    27.1340     2.3990 hn         1 LNC       0.314000
     53 HN72        13.0860    27.4370     3.6900 hn         1 LNC       0.314000
     54 H4          13.5430    23.1700     4.7080 ha         1 LNC       0.215000
     55 HGS1        13.2540    21.5170     6.5650 hc         1 LNC       0.066200
     56 HGS2        12.6400    22.0510     8.1190 hc         1 LNC       0.066200
     57 HBS1        10.9540    20.7020     7.0170 hc         1 LNC       0.080200
     58 HBS2        10.3960    22.3440     7.2550 hc         1 LNC       0.080200
     59 HAS         10.9240    22.8300     4.8220 h1         1 LNC       0.008700
     60 H1           9.3150    20.7330     4.5600 ho         1 LNC       0.464000
     61 H6          12.1040    24.3910     8.5420 h4         1 LNC       0.236000
     62 H2          13.3410    27.3010     5.8880 h4         1 LNC       0.147000
     63 H17         12.6930    27.8830     7.7580 h2         1 LNC       0.072700
     64 H16         12.4050    27.6840    11.1800 h1         1 LNC       0.065700
     65 H5'1        12.4670    25.3500    11.7400 h1         1 LNC       0.036700
     66 H5'2        10.8780    26.0260    12.0640 h1         1 LNC       0.036700
     67 H11          7.5940    28.1030    10.1420 h1         1 LNC       0.028200
     68 H12          6.7890    28.1860     8.5760 h1         1 LNC       0.028200
     69 H5           5.7470    29.6070    10.2470 h1         1 LNC       0.046700
     70 H7           2.4250    28.8280    10.1590 h2         1 LNC       0.102700
     71 H18          3.2400    27.8990    12.6170 h1         1 LNC       0.065700
     72 H8           4.2990    30.1480    12.6440 ho         1 LNC       0.515000
     73 H3           5.3510    27.0260    11.8180 h1         1 LNC       0.103700
     74 H9           6.1150    28.3260    13.4240 ho         1 LNC       0.512000
     75 H10          4.3320    25.6100     9.6620 h5         1 LNC       0.137800
     76 HN61        -1.0220    22.8090    10.9520 hn         1 LNC       0.500500
     77 HN62         0.5980    22.5740    10.4090 hn         1 LNC       0.500500
     78 H111        -1.5120    27.1930    11.7340 h5         1 LNC       0.025100
     79 H122         9.8090    27.4750    10.2920 h1         1 LNC       0.107700
     80 H13         10.4690    29.3820     8.9440 ho         1 LNC       0.521000
     81 H14         10.4530    25.9630     8.5120 h1         1 LNC       0.115700
     82 H15          9.2420    27.1630     7.3840 ho         1 LNC       0.621000
@<TRIPOS>BOND
     1     1     2 1   
     2     1    52 1   
     3     1    53 1   
     4     2     3 2   
     5     2     4 1   
     6     4     5 ar  
     7     4    16 ar  
     8     5     6 ar  
     9     5    54 1   
    10     6     7 1   
    11     6    14 ar  
    12     7     8 1   
    13     7    55 1   
    14     7    56 1   
    15     8     9 1   
    16     8    57 1   
    17     8    58 1   
    18     9    10 1   
    19     9    11 1   
    20     9    59 1   
    21    10    60 1   
    22    11    12 1   
    23    11    13 1   
    24    14    15 2   
    25    14    61 1   
    26    15    16 1   
    27    15    17 1   
    28    16    62 1   
    29    17    18 1   
    30    17    50 1   
    31    17    63 1   
    32    18    19 1   
    33    19    20 1   
    34    19    48 1   
    35    19    64 1   
    36    20    21 1   
    37    20    65 1   
    38    20    66 1   
    39    21    22 1   
    40    22    23 1   
    41    22    24 1   
    42    22    25 1   
    43    25    26 1   
    44    26    27 1   
    45    26    28 1   
    46    26    29 1   
    47    29    30 1   
    48    30    31 1   
    49    30    67 1   
    50    30    68 1   
    51    31    32 1   
    52    31    36 1   
    53    31    69 1   
    54    32    33 1   
    55    33    34 1   
    56    33    38 1   
    57    33    70 1   
    58    34    35 1   
    59    34    36 1   
    60    34    71 1   
    61    35    72 1   
    62    36    37 1   
    63    36    73 1   
    64    37    74 1   
    65    38    39 1   
    66    38    47 1   
    67    39    40 2   
    68    39    75 1   
    69    40    41 1   
    70    41    42 ar  
    71    41    47 ar  
    72    42    43 1   
    73    42    44 ar  
    74    43    76 1   
    75    43    77 1   
    76    44    45 ar  
    77    45    46 ar  
    78    45    78 1   
    79    46    47 ar  
    80    48    49 1   
    81    48    50 1   
    82    48    79 1   
    83    49    80 1   
    84    50    51 1   
    85    50    81 1   
    86    51    82 1   
@<TRIPOS>SUBSTRUCTURE
     1 LNC         1 TEMP              0 ****  ****    0 ROOT
