@<TRIPOS>MOLECULE
LND
   36    37     1     0     0
SMALL
No Charge or Current Charge


@<TRIPOS>ATOM
      1 CAI         -2.5050     1.5280    -0.5450 cc         1 LND       0.024000
      2 CAF         -3.7400     1.2160    -0.0140 cd         1 LND      -0.156000
      3 CAQ         -4.2380    -0.1210     0.0810 cd         1 LND      -0.014000
      4 CAP         -5.4850    -0.3770     0.6240 c2         1 LND       0.610300
      5 OAB         -6.2220     0.5150     1.0350 o          1 LND      -0.562300
      6 NAA         -5.9420    -1.6820     0.7220 nt         1 LND      -0.581000
      7 CAG         -3.3640    -1.1380    -0.4260 cd         1 LND      -0.156000
      8 CAJ         -2.1220    -0.8610    -0.9640 cc         1 LND       0.024000
      9 NAT         -1.6850     0.4820    -1.0250 na         1 LND      -0.341200
     10 CAM         -0.3530     0.7960    -1.5920 c3         1 LND       0.174800
     11 CAK          0.7510     0.8030    -0.5150 c3         1 LND      -0.127400
     12 CAL          2.1480     1.1260    -1.0840 c3         1 LND       0.079600
     13 NAS          3.1920     1.1500    -0.0440 na         1 LND      -0.173500
     14 CAH          3.6320     2.2750     0.6210 cc         1 LND      -0.228000
     15 CAE          4.6090     1.8430     1.4790 cd         1 LND       0.255900
     16 NAO          4.7830     0.4800     1.3660 nd         1 LND      -0.605000
     17 CAR          3.9060     0.0660     0.4520 cc         1 LND       0.362200
     18 CAD          3.7600    -1.3270    -0.0110 ce         1 LND       0.293200
     19 NAN          4.6990    -2.2170     0.1390 n2         1 LND      -0.248700
     20 OAC          4.4200    -3.4650    -0.4450 oh         1 LND      -0.519000
     21 H1          -2.1220     2.5440    -0.6130 h4         1 LND       0.255500
     22 H2          -4.3520     2.0390     0.3490 ha         1 LND       0.255000
     23 H3          -5.2930    -2.4520     0.6790 hn         1 LND       0.337000
     24 H4          -6.8550    -1.8290     1.1260 hn         1 LND       0.337000
     25 H5          -3.6620    -2.1820    -0.4080 ha         1 LND       0.255000
     26 H6          -1.4530    -1.6280    -1.3490 h4         1 LND       0.255500
     27 H7          -0.1060     0.0580    -2.3670 h1         1 LND       0.098200
     28 H8          -0.3920     1.7770    -2.0850 h1         1 LND       0.098200
     29 H9           0.4970     1.5430     0.2540 hc         1 LND       0.077200
     30 H10          0.7760    -0.1760    -0.0200 hc         1 LND       0.077200
     31 H11          2.4210     0.3880    -1.8500 h1         1 LND       0.073200
     32 H12          2.1230     2.1090    -1.5720 h1         1 LND       0.073200
     33 H13          3.2400     3.2680     0.4430 h4         1 LND       0.160000
     34 H14          5.1970     2.4370     2.1670 h4         1 LND       0.056100
     35 H15          2.8800    -1.5290    -0.6260 h4         1 LND      -0.009200
     36 H16          5.2130    -4.0220    -0.2470 ho         1 LND       0.490000
@<TRIPOS>BOND
     1     1     2 2   
     2     1     9 1   
     3     1    21 1   
     4     2     3 1   
     5     2    22 1   
     6     3     4 2   
     7     3     7 1   
     8     4     5 1   
     9     4     6 1   
    10     6    23 1   
    11     6    24 1   
    12     7     8 2   
    13     7    25 1   
    14     8     9 1   
    15     8    26 1   
    16     9    10 1   
    17    10    11 1   
    18    10    27 1   
    19    10    28 1   
    20    11    12 1   
    21    11    29 1   
    22    11    30 1   
    23    12    13 1   
    24    12    31 1   
    25    12    32 1   
    26    13    14 1   
    27    13    17 1   
    28    14    15 2   
    29    14    33 1   
    30    15    16 1   
    31    15    34 1   
    32    16    17 2   
    33    17    18 1   
    34    18    19 2   
    35    18    35 1   
    36    19    20 1   
    37    20    36 1   
@<TRIPOS>SUBSTRUCTURE
     1 LND         1 TEMP              0 ****  ****    0 ROOT
