@<TRIPOS>MOLECULE
LND
   36    37     1     0     0
SMALL
bcc


@<TRIPOS>ATOM
      1 CAI         -2.4280     1.4500    -0.6880 cc         1 LND       0.074000
      2 CAF         -3.6670     1.1890    -0.1560 cd         1 LND      -0.106000
      3 CAQ         -4.0900    -0.1280    -0.0260 cd         1 LND      -0.014000
      4 CAP         -5.4600    -0.3890     0.5400 c2         1 LND       0.677300
      5 OAB         -6.3480     0.4240     0.3570 o          1 LND      -0.562300
      6 NAA         -5.5950    -1.5320     1.2140 nt         1 LND      -0.648000
      7 CAG         -3.2540    -1.1450    -0.4710 cd         1 LND      -0.106000
      8 CAJ         -2.0310    -0.8240    -1.0120 cc         1 LND       0.074000
      9 NAT         -1.6400     0.4520    -1.1080 na         1 LND      -0.341200
     10 CAM         -0.3000     0.7630    -1.6330 c3         1 LND       0.174800
     11 CAK          0.7320     0.7410    -0.5170 c3         1 LND      -0.127400
     12 CAL          2.0870     1.1900    -1.0490 c3         1 LND       0.050300
     13 NAS          3.1080     1.1400    -0.0230 na         1 LND      -0.194900
     14 CAH          3.4470     2.1750     0.7970 cc         1 LND      -0.260600
     15 CAE          4.3950     1.6770     1.6480 cd         1 LND       0.321200
     16 NAO          4.6360     0.3710     1.3730 nd         1 LND      -0.605000
     17 CAR          3.8460     0.0660     0.3670 cc         1 LND       0.362200
     18 CAD          3.7400    -1.2280    -0.2820 ce         1 LND       0.293200
     19 NAN          4.4450    -2.2000     0.1330 n2         1 LND      -0.347200
     20 OAC          4.2300    -3.3350    -0.5830 oh         1 LND      -0.381500
     21 H1          -2.0470     2.4540    -0.7980 h4         1 LND       0.205500
     22 H2          -4.2860     2.0160     0.1590 ha         1 LND       0.205000
     23 H3          -4.8120    -2.1160     1.4540 hn         1 LND       0.337000
     24 H4          -6.4780    -1.7560     1.6460 hn         1 LND       0.337000
     25 H5          -3.5350    -2.1870    -0.4280 ha         1 LND       0.205000
     26 H6          -1.3480    -1.5740    -1.3830 h4         1 LND       0.205500
     27 H7          -0.0730     0.0310    -2.4070 h1         1 LND       0.098200
     28 H8          -0.3560     1.7410    -2.1080 h1         1 LND       0.098200
     29 H9           0.4220     1.4070     0.2910 hc         1 LND       0.077200
     30 H10          0.8040    -0.2660    -0.0990 hc         1 LND       0.077200
     31 H11          2.4010     0.5840    -1.8990 h1         1 LND       0.073200
     32 H12          2.0300     2.2170    -1.4080 h1         1 LND       0.073200
     33 H13          3.0010     3.1500     0.7000 h4         1 LND       0.178000
     34 H14          4.9120     2.2010     2.4360 h4         1 LND       0.056100
     35 H15          3.0540    -1.3380    -1.1200 h4         1 LND      -0.009200
     36 H16          4.8150    -3.9860    -0.1820 ho         1 LND       0.451000
@<TRIPOS>BOND
     1     1     2 2   
     2     1     9 1   
     3     1    21 1   
     4     2     3 1   
     5     2    22 1   
     6     3     4 2   
     7     3     7 1   
     8     4     5 1   
     9     4     6 1   
    10     6    23 1   
    11     6    24 1   
    12     7     8 2   
    13     7    25 1   
    14     8     9 1   
    15     8    26 1   
    16     9    10 1   
    17    10    11 1   
    18    10    27 1   
    19    10    28 1   
    20    11    12 1   
    21    11    29 1   
    22    11    30 1   
    23    12    13 1   
    24    12    31 1   
    25    12    32 1   
    26    13    14 1   
    27    13    17 1   
    28    14    15 2   
    29    14    33 1   
    30    15    16 1   
    31    15    34 1   
    32    16    17 2   
    33    17    18 1   
    34    18    19 2   
    35    18    35 1   
    36    19    20 1   
    37    20    36 1   
@<TRIPOS>SUBSTRUCTURE
     1 LND         1 TEMP              0 ****  ****    0 ROOT
