@<TRIPOS>MOLECULE
LNE
   29    28     1     0     0
SMALL
bcc


@<TRIPOS>ATOM
      1 N9          -0.8130     2.0250     0.7530 n8         1 LNE      -0.869800
      2 C10         -0.3600     0.6840     0.4340 c3         1 LNE       0.085500
      3 C11          1.0460     0.7690    -0.1450 c          1 LNE       0.672100
      4 N12          1.8730    -0.2240     0.2070 ns         1 LNE      -0.577900
      5 C13          3.2250    -0.3540    -0.3000 c3         1 LNE       0.107000
      6 C14          3.8350    -1.6650     0.1560 c3         1 LNE      -0.112100
      7 C15         -1.2410    -0.0910    -0.5600 c3         1 LNE      -0.114400
      8 C16         -2.6740    -0.3460    -0.0870 c3         1 LNE      -0.061700
      9 C17         -3.4820    -0.9870    -1.2120 c3         1 LNE      -0.089600
     10 C18         -2.7190    -1.2200     1.1620 c3         1 LNE      -0.089600
     11 O25          1.3720     1.6610    -0.9170 o          1 LNE      -0.601100
     12 HN9         -0.9290     2.5520    -0.1040 hn         1 LNE       0.349300
     13 H10         -0.3140     0.1220     1.3730 h1         1 LNE       0.060700
     14 HN12         1.5540    -0.9050     0.8770 hn         1 LNE       0.311500
     15 H13          3.2130    -0.3070    -1.3910 h1         1 LNE       0.051200
     16 H13A         3.8370     0.4840     0.0460 h1         1 LNE       0.051200
     17 H14          4.8580    -1.7490    -0.2070 hc         1 LNE       0.041033
     18 H14A         3.8630    -1.7340     1.2450 hc         1 LNE       0.041033
     19 H14B         3.2720    -2.5180    -0.2250 hc         1 LNE       0.041033
     20 H15         -1.2670     0.4670    -1.5020 hc         1 LNE       0.053200
     21 H15A        -0.7710    -1.0550    -0.7850 hc         1 LNE       0.053200
     22 H16         -3.1400     0.6180     0.1470 hc         1 LNE       0.041700
     23 H17         -3.0500    -1.9470    -1.5020 hc         1 LNE       0.034700
     24 H17A        -4.5130    -1.1670    -0.9030 hc         1 LNE       0.034700
     25 H17B        -3.5080    -0.3510    -2.0990 hc         1 LNE       0.034700
     26 H18         -3.7490    -1.4050     1.4700 hc         1 LNE       0.034700
     27 H18A        -2.2520    -2.1900     0.9730 hc         1 LNE       0.034700
     28 H18B        -2.2080    -0.7670     2.0120 hc         1 LNE       0.034700
     29 H2          -1.7300     1.9780     1.1780 hn         1 LNE       0.349300
@<TRIPOS>BOND
     1     1     2 1   
     2     1    12 1   
     3     1    29 1   
     4     2     3 1   
     5     2     7 1   
     6     2    13 1   
     7     3     4 1   
     8     3    11 2   
     9     4     5 1   
    10     4    14 1   
    11     5     6 1   
    12     5    15 1   
    13     5    16 1   
    14     6    17 1   
    15     6    18 1   
    16     6    19 1   
    17     7     8 1   
    18     7    20 1   
    19     7    21 1   
    20     8     9 1   
    21     8    10 1   
    22     8    22 1   
    23     9    23 1   
    24     9    24 1   
    25     9    25 1   
    26    10    26 1   
    27    10    27 1   
    28    10    28 1   
@<TRIPOS>SUBSTRUCTURE
     1 LNE         1 TEMP              0 ****  ****    0 ROOT
