@<TRIPOS>MOLECULE
LNE
   29    28     1     0     0
SMALL
No Charge or Current Charge


@<TRIPOS>ATOM
      1 N9          -0.7740     1.8510     0.8760 n8         1 LNE      -0.980200
      2 C10         -0.3310     0.5380     0.2990 c3         1 LNE       0.085500
      3 C11          1.0850     0.5590    -0.3930 c          1 LNE       0.605100
      4 N12          2.0260    -0.2830     0.1630 ns         1 LNE      -0.510900
      5 C13          3.3990    -0.4180    -0.3210 c3         1 LNE       0.107000
      6 C14          4.1680    -1.4980     0.4570 c3         1 LNE      -0.112100
      7 C15         -1.4090    -0.0140    -0.6760 c3         1 LNE      -0.114400
      8 C16         -2.8100    -0.3130    -0.0650 c3         1 LNE      -0.061700
      9 C17         -3.8080    -0.7360    -1.1680 c3         1 LNE      -0.089600
     10 C18         -2.7620    -1.3750     1.0600 c3         1 LNE      -0.089600
     11 O25          1.3510     1.2790    -1.3490 o          1 LNE      -0.601100
     12 HN9         -0.8330     2.5440     0.1200 hn         1 LNE       0.404500
     13 H10         -0.2450    -0.1670     1.1360 h1         1 LNE       0.060700
     14 HN12         1.7360    -0.8360     0.9610 hn         1 LNE       0.311500
     15 H13          3.3790    -0.6800    -1.3870 h1         1 LNE       0.051200
     16 H13A         3.9120     0.5480    -0.2120 h1         1 LNE       0.051200
     17 H14          5.1930    -1.5820     0.0770 hc         1 LNE       0.041033
     18 H14A         4.2160    -1.2470     1.5230 hc         1 LNE       0.041033
     19 H14B         3.6800    -2.4740     0.3490 hc         1 LNE       0.041033
     20 H15         -1.5240     0.6950    -1.5060 hc         1 LNE       0.053200
     21 H15A        -1.0240    -0.9390    -1.1240 hc         1 LNE       0.053200
     22 H16         -3.2030     0.6130     0.3720 hc         1 LNE       0.041700
     23 H17         -3.4860    -1.6680    -1.6500 hc         1 LNE       0.034700
     24 H17A        -4.8080    -0.8960    -0.7470 hc         1 LNE       0.034700
     25 H17B        -3.8870     0.0390    -1.9390 hc         1 LNE       0.034700
     26 H18         -3.7720    -1.5950     1.4270 hc         1 LNE       0.034700
     27 H18A        -2.3200    -2.3110     0.6970 hc         1 LNE       0.034700
     28 H18B        -2.1740    -1.0230     1.9150 hc         1 LNE       0.034700
     29 H2          -1.7440     1.7630     1.2000 hn         1 LNE       0.404500
@<TRIPOS>BOND
     1     1     2 1   
     2     1    12 1   
     3     1    29 1   
     4     2     3 1   
     5     2     7 1   
     6     2    13 1   
     7     3     4 1   
     8     3    11 2   
     9     4     5 1   
    10     4    14 1   
    11     5     6 1   
    12     5    15 1   
    13     5    16 1   
    14     6    17 1   
    15     6    18 1   
    16     6    19 1   
    17     7     8 1   
    18     7    20 1   
    19     7    21 1   
    20     8     9 1   
    21     8    10 1   
    22     8    22 1   
    23     9    23 1   
    24     9    24 1   
    25     9    25 1   
    26    10    26 1   
    27    10    27 1   
    28    10    28 1   
@<TRIPOS>SUBSTRUCTURE
     1 LNE         1 TEMP              0 ****  ****    0 ROOT
