@<TRIPOS>MOLECULE
LNF
   75    79     1     0     0
SMALL
No Charge or Current Charge


@<TRIPOS>ATOM
      1 C4          29.0100    36.3120    31.8600 ca         1 LNF      -0.090300
      2 C6          25.5270    32.1860    30.3170 ca         1 LNF      -0.032000
      3 C7          24.8160    31.0020    30.0300 ca         1 LNF      -0.119000
      4 C8          24.6400    30.0070    31.0230 ca         1 LNF      -0.018000
      5 C13         29.6840    33.0050    37.5570 cc         1 LNF      -0.134500
      6 C15         27.0470    32.7580    36.5180 cd         1 LNF      -0.164000
      7 C17         28.1310    30.8200    41.7520 c3         1 LNF       0.109000
      8 C20         28.7900    33.7820    45.1500 c3         1 LNF       0.098600
      9 C21         30.2480    33.3540    45.3850 c3         1 LNF      -0.127100
     10 C22         26.3490    33.1460    45.2490 c3         1 LNF       0.098600
     11 C4C         28.4290    35.0650    33.8910 ca         1 LNF      -0.058000
     12 C11         27.8040    33.8690    34.4750 cc         1 LNF       0.070000
     13 C11A        28.0940    33.3990    35.7630 cd         1 LNF      -0.067000
     14 C12         29.4290    33.5060    36.2970 cd         1 LNF      -0.164000
     15 C13A        28.6560    32.3700    38.3540 cc         1 LNF      -0.115000
     16 C16A        28.9620    31.8880    39.6110 c2         1 LNF       0.617300
     17 O16         30.0920    31.9860    40.0910 o          1 LNF      -0.610300
     18 N16         27.9600    31.2650    40.3660 ns         1 LNF      -0.502900
     19 C18         27.8650    31.9620    42.7480 c3         1 LNF      -0.128400
     20 C19         28.0380    31.5130    44.2120 c3         1 LNF       0.098600
     21 N20         27.7900    32.6270    45.2450 nx         1 LNF      -0.667000
     22 C23         25.3080    32.0680    45.5930 c3         1 LNF      -0.127100
     23 C14         27.3290    32.2690    37.7790 cc         1 LNF      -0.134500
     24 C10A        27.0460    33.0640    33.5700 cc         1 LNF      -0.052200
     25 C5B         26.8120    33.3760    32.2480 cd         1 LNF       0.025000
     26 C5C         26.0370    32.3340    31.6140 ca         1 LNF      -0.159000
     27 C9B         25.8780    31.3680    32.5790 ca         1 LNF       0.052800
     28 N10         26.5070    31.7740    33.7520 na         1 LNF      -0.214600
     29 C9          25.1770    30.1790    32.3220 ca         1 LNF      -0.106300
     30 C9A         25.0020    29.1130    33.3950 c3         1 LNF      -0.053800
     31 N5          27.1570    34.6590    31.7870 na         1 LNF       0.105000
     32 C5A         26.2780    35.4120    30.8720 c3         1 LNF       0.021900
     33 C4B         28.2090    35.3160    32.5020 ca         1 LNF      -0.012000
     34 C4A         29.0510    36.5120    30.3430 c3         1 LNF      -0.061800
     35 C3          29.8370    37.1520    32.6290 ca         1 LNF      -0.046000
     36 C2          29.8780    37.0300    34.0200 ca         1 LNF      -0.083000
     37 C1          29.1800    35.9950    34.6480 ca         1 LNF      -0.078000
     38 H6          25.6750    32.9450    29.5530 ha         1 LNF       0.129000
     39 H7          24.4030    30.8490    29.0360 ha         1 LNF       0.146000
     40 H8          24.0900    29.1010    30.7780 ha         1 LNF       0.142000
     41 H13         30.6940    33.0780    37.9570 ha         1 LNF       0.207000
     42 H15         26.0270    32.7080    36.1430 ha         1 LNF       0.204000
     43 H172        27.4300    29.9960    41.9440 h1         1 LNF       0.070200
     44 H171        29.1490    30.4310    41.8920 h1         1 LNF       0.070200
     45 H202        28.7000    34.2450    44.1640 hx         1 LNF       0.095950
     46 H201        28.5200    34.5330    45.8980 hx         1 LNF       0.095950
     47 H212        30.9040    34.2330    45.3730 hc         1 LNF       0.077867
     48 H211        30.3560    32.8600    46.3580 hc         1 LNF       0.077867
     49 H213        30.5900    32.6680    44.6020 hc         1 LNF       0.077867
     50 H222        26.2760    33.9510    45.9860 hx         1 LNF       0.095950
     51 H221        26.1260    33.5700    44.2670 hx         1 LNF       0.095950
     52 H12         30.2480    33.9180    35.7140 ha         1 LNF       0.204000
     53 H16         27.0740    31.0900    39.9130 hn         1 LNF       0.326500
     54 H182        28.5530    32.7880    42.5350 hc         1 LNF       0.071200
     55 H181        26.8470    32.3390    42.5960 hc         1 LNF       0.071200
     56 H192        27.3480    30.6900    44.4150 hx         1 LNF       0.097200
     57 H191        29.0540    31.1340    44.3480 hx         1 LNF       0.097200
     58 H232        24.3090    32.5150    45.6460 hc         1 LNF       0.077867
     59 H231        25.2850    31.2830    44.8300 hc         1 LNF       0.077867
     60 H233        25.5300    31.6100    46.5630 hc         1 LNF       0.077867
     61 H14         26.5170    31.8150    38.3400 ha         1 LNF       0.207000
     62 H10         26.5980    31.2090    34.5880 hn         1 LNF       0.385000
     63 H9A2        25.9730    28.7190    33.7200 hc         1 LNF       0.056367
     64 H9A1        24.4920    29.5210    34.2760 hc         1 LNF       0.056367
     65 H9A3        24.4070    28.2660    33.0330 hc         1 LNF       0.056367
     66 H5A2        26.3150    36.4820    31.1090 h1         1 LNF       0.087367
     67 H5A3        26.5880    35.2480    29.8340 h1         1 LNF       0.087367
     68 H5A1        25.2440    35.0690    30.9940 h1         1 LNF       0.087367
     69 H4A1        28.2830    37.2170    30.0070 hc         1 LNF       0.063367
     70 H4A3        30.0190    36.9160    30.0210 hc         1 LNF       0.063367
     71 H4A2        28.9200    35.5660    29.8030 hc         1 LNF       0.063367
     72 H3          30.4280    37.9290    32.1480 ha         1 LNF       0.146000
     73 H2          30.4780    37.7200    34.6100 ha         1 LNF       0.147000
     74 H1          29.2340    35.9310    35.7310 ha         1 LNF       0.139000
     75 H20N        27.9410    32.1940    46.1860 hn         1 LNF       0.499000
@<TRIPOS>BOND
     1     1    33 ar  
     2     1    34 1   
     3     1    35 ar  
     4     2     3 ar  
     5     2    26 ar  
     6     2    38 1   
     7     3     4 ar  
     8     3    39 1   
     9     4    29 ar  
    10     4    40 1   
    11     5    14 2   
    12     5    15 1   
    13     5    41 1   
    14     6    13 1   
    15     6    23 2   
    16     6    42 1   
    17     7    18 1   
    18     7    19 1   
    19     7    43 1   
    20     7    44 1   
    21     8     9 1   
    22     8    21 1   
    23     8    45 1   
    24     8    46 1   
    25     9    47 1   
    26     9    48 1   
    27     9    49 1   
    28    10    21 1   
    29    10    22 1   
    30    10    50 1   
    31    10    51 1   
    32    11    12 1   
    33    11    33 ar  
    34    11    37 ar  
    35    12    13 2   
    36    12    24 1   
    37    13    14 1   
    38    14    52 1   
    39    15    16 2   
    40    15    23 1   
    41    16    17 1   
    42    16    18 1   
    43    18    53 1   
    44    19    20 1   
    45    19    54 1   
    46    19    55 1   
    47    20    21 1   
    48    20    56 1   
    49    20    57 1   
    50    21    75 1   
    51    22    58 1   
    52    22    59 1   
    53    22    60 1   
    54    23    61 1   
    55    24    25 2   
    56    24    28 1   
    57    25    26 1   
    58    25    31 1   
    59    26    27 ar  
    60    27    28 1   
    61    27    29 ar  
    62    28    62 1   
    63    29    30 1   
    64    30    63 1   
    65    30    64 1   
    66    30    65 1   
    67    31    32 1   
    68    31    33 1   
    69    32    66 1   
    70    32    67 1   
    71    32    68 1   
    72    34    69 1   
    73    34    70 1   
    74    34    71 1   
    75    35    36 ar  
    76    35    72 1   
    77    36    37 ar  
    78    36    73 1   
    79    37    74 1   
@<TRIPOS>SUBSTRUCTURE
     1 LNF         1 TEMP              0 ****  ****    0 ROOT
