@<TRIPOS>MOLECULE
LNF
   75    79     1     0     0
SMALL
bcc


@<TRIPOS>ATOM
      1 C4          28.3340    36.6770    32.0730 ca         1 LNF      -0.090300
      2 C6          26.1960    31.8360    30.0090 ca         1 LNF      -0.050000
      3 C7          25.8060    30.5570    29.6930 ca         1 LNF      -0.137000
      4 C8          25.7340    29.5550    30.6770 ca         1 LNF      -0.036000
      5 C13         29.0670    32.7710    37.6640 cc         1 LNF      -0.084500
      6 C15         26.5760    32.9810    36.4670 cd         1 LNF      -0.114000
      7 C17         27.0600    31.3770    41.9170 c3         1 LNF       0.109000
      8 C20         29.6250    32.9040    45.2310 c3         1 LNF       0.126800
      9 C21         30.4790    31.6710    45.0340 c3         1 LNF      -0.127100
     10 C22         27.4010    33.8730    45.6190 c3         1 LNF       0.126800
     11 C4C         27.9220    35.0850    33.9060 ca         1 LNF      -0.058000
     12 C11         27.6010    33.7780    34.3520 cc         1 LNF       0.070000
     13 C11A        27.7160    33.3510    35.7600 cd         1 LNF      -0.067000
     14 C12         28.9640    33.2460    36.3690 cd         1 LNF      -0.114000
     15 C13A        27.9280    32.4110    38.3810 cc         1 LNF      -0.115000
     16 C16A        28.1140    31.8640    39.7640 c2         1 LNF       0.684300
     17 O16         29.1910    31.3990    40.1110 o          1 LNF      -0.610300
     18 N16         27.0430    31.9040    40.5730 ns         1 LNF      -0.569900
     19 C18         27.6320    32.3630    42.9340 c3         1 LNF      -0.128400
     20 C19         27.5980    31.7350    44.3120 c3         1 LNF       0.126800
     21 N20         28.1640    32.6010    45.3950 nx         1 LNF      -0.696400
     22 C23         25.9300    33.6560    45.8930 c3         1 LNF      -0.127100
     23 C14         26.6820    32.5190    37.7690 cc         1 LNF      -0.084500
     24 C10A        27.1970    32.8800    33.4020 cc         1 LNF      -0.052200
     25 C5B         26.9930    33.2690    32.0540 cd         1 LNF       0.075700
     26 C5C         26.5170    32.1230    31.3460 ca         1 LNF      -0.159000
     27 C9B         26.4620    31.0880    32.3070 ca         1 LNF       0.052800
     28 N10         26.8640    31.5640    33.5210 na         1 LNF      -0.164300
     29 C9          26.0630    29.7840    31.9980 ca         1 LNF      -0.106300
     30 C9A         26.0140    28.7220    33.0520 c3         1 LNF      -0.053800
     31 N5          27.2130    34.5300    31.6690 na         1 LNF       0.032900
     32 C5A         26.6090    34.9480    30.3990 c3         1 LNF      -0.007400
     33 C4B         27.8080    35.4340    32.5270 ca         1 LNF       0.038700
     34 C4A         28.5920    37.0360    30.6310 c3         1 LNF      -0.061800
     35 C3          28.7610    37.5730    33.0270 ca         1 LNF      -0.064000
     36 C2          28.7330    37.2990    34.4010 ca         1 LNF      -0.101000
     37 C1          28.3550    36.0620    34.8300 ca         1 LNF      -0.096000
     38 H6          26.2620    32.5820    29.2320 ha         1 LNF       0.147000
     39 H7          25.5540    30.3110    28.6710 ha         1 LNF       0.164000
     40 H8          25.4180    28.5610    30.3860 ha         1 LNF       0.160000
     41 H13         30.0420    32.6770    38.1210 ha         1 LNF       0.157000
     42 H15         25.6010    33.0540    36.0030 ha         1 LNF       0.154000
     43 H172        26.0340    31.1210    42.1820 h1         1 LNF       0.070200
     44 H171        27.6350    30.4510    41.9280 h1         1 LNF       0.070200
     45 H202        29.7210    33.5980    44.3980 hx         1 LNF       0.095950
     46 H201        29.9170    33.4300    46.1380 hx         1 LNF       0.095950
     47 H212        31.5240    31.9720    45.1000 hc         1 LNF       0.077867
     48 H211        30.3000    30.9260    45.8100 hc         1 LNF       0.077867
     49 H213        30.3340    31.2090    44.0590 hc         1 LNF       0.077867
     50 H222        27.8790    34.3570    46.4700 hx         1 LNF       0.095950
     51 H221        27.5600    34.5040    44.7460 hx         1 LNF       0.095950
     52 H12         29.8590    33.5160    35.8230 ha         1 LNF       0.154000
     53 H16         26.2270    32.4250    40.2960 hn         1 LNF       0.326500
     54 H182        28.6530    32.6190    42.6460 hc         1 LNF       0.071200
     55 H181        27.0410    33.2810    42.9080 hc         1 LNF       0.071200
     56 H192        26.5780    31.4900    44.6080 hx         1 LNF       0.097200
     57 H191        28.1600    30.8030    44.3320 hx         1 LNF       0.097200
     58 H232        25.5000    34.6080    46.2010 hc         1 LNF       0.077867
     59 H231        25.3810    33.3190    45.0160 hc         1 LNF       0.077867
     60 H233        25.7710    32.9440    46.7040 hc         1 LNF       0.077867
     61 H14         25.7760    32.2180    38.2790 ha         1 LNF       0.157000
     62 H10         26.9530    31.0180    34.3650 hn         1 LNF       0.334700
     63 H9A2        27.0030    28.5390    33.4780 hc         1 LNF       0.056367
     64 H9A1        25.3550    29.0060    33.8740 hc         1 LNF       0.056367
     65 H9A3        25.6500    27.7830    32.6410 hc         1 LNF       0.056367
     66 H5A2        26.3690    36.0020    30.4390 h1         1 LNF       0.087367
     67 H5A3        27.2620    34.7430    29.5550 h1         1 LNF       0.087367
     68 H5A1        25.6710    34.4150    30.2770 h1         1 LNF       0.087367
     69 H4A1        27.7370    37.4980    30.1390 hc         1 LNF       0.063367
     70 H4A3        29.4050    37.7590    30.5930 hc         1 LNF       0.063367
     71 H4A2        28.9020    36.1800    30.0370 hc         1 LNF       0.063367
     72 H3          29.1720    38.5180    32.6950 ha         1 LNF       0.164000
     73 H2          29.0580    38.0500    35.1070 ha         1 LNF       0.165000
     74 H1          28.3870    35.8170    35.8820 ha         1 LNF       0.157000
     75 H20N        28.0770    32.0530    46.2540 hn         1 LNF       0.443800
@<TRIPOS>BOND
     1     1    33 ar  
     2     1    34 1   
     3     1    35 ar  
     4     2     3 ar  
     5     2    26 ar  
     6     2    38 1   
     7     3     4 ar  
     8     3    39 1   
     9     4    29 ar  
    10     4    40 1   
    11     5    14 2   
    12     5    15 1   
    13     5    41 1   
    14     6    13 1   
    15     6    23 2   
    16     6    42 1   
    17     7    18 1   
    18     7    19 1   
    19     7    43 1   
    20     7    44 1   
    21     8     9 1   
    22     8    21 1   
    23     8    45 1   
    24     8    46 1   
    25     9    47 1   
    26     9    48 1   
    27     9    49 1   
    28    10    21 1   
    29    10    22 1   
    30    10    50 1   
    31    10    51 1   
    32    11    12 1   
    33    11    33 ar  
    34    11    37 ar  
    35    12    13 2   
    36    12    24 1   
    37    13    14 1   
    38    14    52 1   
    39    15    16 2   
    40    15    23 1   
    41    16    17 1   
    42    16    18 1   
    43    18    53 1   
    44    19    20 1   
    45    19    54 1   
    46    19    55 1   
    47    20    21 1   
    48    20    56 1   
    49    20    57 1   
    50    21    75 1   
    51    22    58 1   
    52    22    59 1   
    53    22    60 1   
    54    23    61 1   
    55    24    25 2   
    56    24    28 1   
    57    25    26 1   
    58    25    31 1   
    59    26    27 ar  
    60    27    28 1   
    61    27    29 ar  
    62    28    62 1   
    63    29    30 1   
    64    30    63 1   
    65    30    64 1   
    66    30    65 1   
    67    31    32 1   
    68    31    33 1   
    69    32    66 1   
    70    32    67 1   
    71    32    68 1   
    72    34    69 1   
    73    34    70 1   
    74    34    71 1   
    75    35    36 ar  
    76    35    72 1   
    77    36    37 ar  
    78    36    73 1   
    79    37    74 1   
@<TRIPOS>SUBSTRUCTURE
     1 LNF         1 TEMP              0 ****  ****    0 ROOT
