@<TRIPOS>MOLECULE
LNG
   41    40     1     0     0
SMALL
abcg2


@<TRIPOS>ATOM
      1 O11          6.4900     1.9590    -0.5240 o          1 LNG      -0.734500
      2 O1           6.7030     0.1490     0.7560 o          1 LNG      -0.734500
      3 C1           6.1450     0.8290    -0.1250 c          1 LNG       0.724000
      4 C2           4.8940     0.2290    -0.8090 c3         1 LNG      -0.201200
      5 C3           4.5190    -1.1320    -0.3270 c2         1 LNG      -0.106200
      6 C4           3.4060    -1.4940     0.3110 c2         1 LNG      -0.309200
      7 C5           2.2560    -0.6280     0.7190 c3         1 LNG      -0.021200
      8 C6           0.9450    -1.0360     0.0430 c3         1 LNG      -0.073400
      9 C7          -0.2540    -0.2540     0.5630 c3         1 LNG      -0.076400
     10 C8          -1.5700    -0.6450    -0.0980 c3         1 LNG      -0.073400
     11 C9          -2.7650     0.1120     0.4670 c3         1 LNG      -0.076400
     12 C10         -4.0940    -0.2740    -0.1730 c3         1 LNG      -0.074400
     13 C11         -5.2720     0.4790     0.4340 c3         1 LNG      -0.072400
     14 C12         -6.6490     0.0640    -0.0880 c3         1 LNG      -0.060700
     15 C13         -7.7470     0.7740     0.6990 c3         1 LNG      -0.086100
     16 C14         -6.8030     0.3380    -1.5810 c3         1 LNG      -0.086100
     17 H2C1         4.0670     0.9360    -0.7030 hc         1 LNG       0.028200
     18 H2C2         5.0970     0.1870    -1.8850 hc         1 LNG       0.028200
     19 H3C1         5.2440    -1.9140    -0.5340 ha         1 LNG       0.155000
     20 H4C1         3.2990    -2.5440     0.5770 ha         1 LNG       0.137000
     21 H5C1         2.1230    -0.7060     1.8040 hc         1 LNG       0.038200
     22 H5C2         2.4550     0.4260     0.5110 hc         1 LNG       0.038200
     23 H6C1         1.0390    -0.8980    -1.0390 hc         1 LNG       0.031200
     24 H6C2         0.7770    -2.1070     0.2000 hc         1 LNG       0.031200
     25 H7C1        -0.3360    -0.4020     1.6450 hc         1 LNG       0.035200
     26 H7C2        -0.0830     0.8190     0.4170 hc         1 LNG       0.035200
     27 H8C1        -1.5030    -0.4700    -1.1780 hc         1 LNG       0.033700
     28 H8C2        -1.7300    -1.7220     0.0250 hc         1 LNG       0.033700
     29 H9C1        -2.8230    -0.0620     1.5470 hc         1 LNG       0.035700
     30 H9C2        -2.6070     1.1890     0.3440 hc         1 LNG       0.035700
     31 H101        -4.0400    -0.0910    -1.2500 hc         1 LNG       0.035700
     32 H102        -4.2510    -1.3530    -0.0550 hc         1 LNG       0.035700
     33 H111        -5.2520     0.3370     1.5200 hc         1 LNG       0.036200
     34 H112        -5.1410     1.5550     0.2690 hc         1 LNG       0.036200
     35 H12         -6.7580    -1.0150     0.0740 hc         1 LNG       0.042700
     36 H131        -7.6840     1.8570     0.5630 hc         1 LNG       0.029867
     37 H132        -8.7390     0.4570     0.3750 hc         1 LNG       0.029867
     38 H133        -7.6650     0.5720     1.7680 hc         1 LNG       0.029867
     39 H141        -6.6420     1.3970    -1.7980 hc         1 LNG       0.029867
     40 H142        -6.0940    -0.2330    -2.1820 hc         1 LNG       0.029867
     41 H143        -7.8050     0.0800    -1.9280 hc         1 LNG       0.029867
@<TRIPOS>BOND
     1     1     3 1   
     2     2     3 1   
     3     3     4 1   
     4     4     5 1   
     5     4    17 1   
     6     4    18 1   
     7     5     6 2   
     8     5    19 1   
     9     6     7 1   
    10     6    20 1   
    11     7     8 1   
    12     7    21 1   
    13     7    22 1   
    14     8     9 1   
    15     8    23 1   
    16     8    24 1   
    17     9    10 1   
    18     9    25 1   
    19     9    26 1   
    20    10    11 1   
    21    10    27 1   
    22    10    28 1   
    23    11    12 1   
    24    11    29 1   
    25    11    30 1   
    26    12    13 1   
    27    12    31 1   
    28    12    32 1   
    29    13    14 1   
    30    13    33 1   
    31    13    34 1   
    32    14    15 1   
    33    14    16 1   
    34    14    35 1   
    35    15    36 1   
    36    15    37 1   
    37    15    38 1   
    38    16    39 1   
    39    16    40 1   
    40    16    41 1   
@<TRIPOS>SUBSTRUCTURE
     1 LNG         1 TEMP              0 ****  ****    0 ROOT
