@<TRIPOS>MOLECULE
LNG
   41    40     1     0     0
SMALL
No Charge or Current Charge


@<TRIPOS>ATOM
      1 O11          5.7190     1.7800    -0.0450 o          1 LNG      -0.734500
      2 O1           6.5950     0.6760    -1.6720 o          1 LNG      -0.734500
      3 C1           5.6470     0.9730    -0.9600 c          1 LNG       0.724000
      4 C2           4.3470     0.1630    -1.1160 c3         1 LNG      -0.201200
      5 C3           4.4060    -1.1210    -0.2960 c2         1 LNG      -0.106200
      6 C4           3.5600    -1.5170     0.6720 c2         1 LNG      -0.309200
      7 C5           2.3510    -0.7720     1.2090 c3         1 LNG      -0.021200
      8 C6           1.0690    -1.0880     0.4100 c3         1 LNG      -0.073400
      9 C7          -0.1770    -0.3450     0.9400 c3         1 LNG      -0.076400
     10 C8          -1.4570    -0.6620     0.1380 c3         1 LNG      -0.073400
     11 C9          -2.7030     0.0810     0.6680 c3         1 LNG      -0.076400
     12 C10         -3.9840    -0.2370    -0.1340 c3         1 LNG      -0.074400
     13 C11         -5.2300     0.5120     0.3970 c3         1 LNG      -0.072400
     14 C12         -6.5640     0.1430    -0.3080 c3         1 LNG      -0.060700
     15 C13         -7.7650     0.8060     0.4040 c3         1 LNG      -0.086100
     16 C14         -6.5660     0.4860    -1.8170 c3         1 LNG      -0.086100
     17 H2C1         3.4970     0.7610    -0.7720 hc         1 LNG       0.028200
     18 H2C2         4.2390    -0.1570    -2.1590 hc         1 LNG       0.028200
     19 H3C1         5.2430    -1.7690    -0.5680 ha         1 LNG       0.155000
     20 H4C1         3.7320    -2.4750     1.1650 ha         1 LNG       0.137000
     21 H5C1         2.1940    -1.0380     2.2620 hc         1 LNG       0.038200
     22 H5C2         2.5240     0.3100     1.1990 hc         1 LNG       0.038200
     23 H6C1         1.2280    -0.8200    -0.6420 hc         1 LNG       0.031200
     24 H6C2         0.8850    -2.1690     0.4410 hc         1 LNG       0.031200
     25 H7C1        -0.3350    -0.6120     1.9920 hc         1 LNG       0.035200
     26 H7C2         0.0090     0.7360     0.9080 hc         1 LNG       0.035200
     27 H8C1        -1.2990    -0.3950    -0.9150 hc         1 LNG       0.033700
     28 H8C2        -1.6430    -1.7430     0.1690 hc         1 LNG       0.033700
     29 H9C1        -2.8610    -0.1860     1.7200 hc         1 LNG       0.035700
     30 H9C2        -2.5180     1.1620     0.6350 hc         1 LNG       0.035700
     31 H101        -3.8140     0.0280    -1.1840 hc         1 LNG       0.035700
     32 H102        -4.1710    -1.3180    -0.1000 hc         1 LNG       0.035700
     33 H111        -5.3290     0.2970     1.4690 hc         1 LNG       0.036200
     34 H112        -5.0620     1.5930     0.3110 hc         1 LNG       0.036200
     35 H12         -6.6980    -0.9430    -0.2180 hc         1 LNG       0.042700
     36 H131        -7.6960     1.9000     0.3500 hc         1 LNG       0.029867
     37 H132        -8.7100     0.4990    -0.0600 hc         1 LNG       0.029867
     38 H133        -7.8000     0.5160     1.4610 hc         1 LNG       0.029867
     39 H141        -6.3620     1.5520    -1.9760 hc         1 LNG       0.029867
     40 H142        -5.8100    -0.0960    -2.3580 hc         1 LNG       0.029867
     41 H143        -7.5400     0.2540    -2.2650 hc         1 LNG       0.029867
@<TRIPOS>BOND
     1     1     3 1   
     2     2     3 1   
     3     3     4 1   
     4     4     5 1   
     5     4    17 1   
     6     4    18 1   
     7     5     6 2   
     8     5    19 1   
     9     6     7 1   
    10     6    20 1   
    11     7     8 1   
    12     7    21 1   
    13     7    22 1   
    14     8     9 1   
    15     8    23 1   
    16     8    24 1   
    17     9    10 1   
    18     9    25 1   
    19     9    26 1   
    20    10    11 1   
    21    10    27 1   
    22    10    28 1   
    23    11    12 1   
    24    11    29 1   
    25    11    30 1   
    26    12    13 1   
    27    12    31 1   
    28    12    32 1   
    29    13    14 1   
    30    13    33 1   
    31    13    34 1   
    32    14    15 1   
    33    14    16 1   
    34    14    35 1   
    35    15    36 1   
    36    15    37 1   
    37    15    38 1   
    38    16    39 1   
    39    16    40 1   
    40    16    41 1   
@<TRIPOS>SUBSTRUCTURE
     1 LNG         1 TEMP              0 ****  ****    0 ROOT
