@<TRIPOS>MOLECULE
LNH
   53    57     1     0     0
SMALL
No Charge or Current Charge


@<TRIPOS>ATOM
      1 C1          -0.3780     6.8110     0.5510 c3         1 LNH      -0.181100
      2 C2          -0.3580     5.2840     0.5100 c          1 LNH       0.595100
      3 O3          -1.3620     4.6260     0.7530 o          1 LNH      -0.565100
      4 N4           0.8810     4.7440     0.1930 ns         1 LNH      -0.145000
      5 C5           1.3240     3.4020     0.0220 ca         1 LNH      -0.058000
      6 C6           2.7170     3.1890    -0.0870 ca         1 LNH      -0.163000
      7 C7           3.2380     1.8930    -0.2560 ca         1 LNH      -0.073000
      8 C8           2.3400     0.8160    -0.3220 ca         1 LNH      -0.087200
      9 C9           0.9850     1.0050    -0.2270 ca         1 LNH      -0.028800
     10 C10          0.4420     2.2940    -0.0540 ca         1 LNH      -0.083000
     11 C11          0.3570    -0.3020    -0.3360 cc         1 LNH      -0.291000
     12 C12          1.4060    -1.2190    -0.4850 cd         1 LNH      -0.094100
     13 N13          2.6330    -0.5280    -0.4810 na         1 LNH      -0.041700
     14 C14          3.9900    -1.0840    -0.6230 c3         1 LNH       0.079600
     15 C15          4.6880    -1.3300     0.7310 c3         1 LNH      -0.236400
     16 C16          6.0800    -1.9080     0.4710 c          1 LNH       0.723000
     17 O17          6.1880    -3.1200     0.3710 o          1 LNH      -0.728500
     18 O18          7.0050    -1.1270     0.3140 o          1 LNH      -0.728500
     19 C19         -1.0540    -0.6610    -0.3050 cc         1 LNH       0.573800
     20 C20         -1.3920    -2.0690    -0.4210 cc         1 LNH      -0.330000
     21 C21         -2.6920    -2.5280    -0.4050 cd         1 LNH       0.403000
     22 N22         -3.6450    -1.5250    -0.2690 na         1 LNH       0.053900
     23 C23         -3.2190    -0.2260    -0.1710 cd         1 LNH       0.498500
     24 N24         -1.9540     0.3140    -0.1760 nd         1 LNH      -0.704000
     25 C25         -4.3550     0.4990    -0.0640 cc         1 LNH      -0.263300
     26 C26         -5.4080    -0.4480    -0.1070 cc         1 LNH       0.448500
     27 N27         -5.0260    -1.7200    -0.2340 nd         1 LNH      -0.637100
     28 C28         -4.5360     1.8930     0.0600 cg         1 LNH       0.348700
     29 N29         -4.7260     3.0400     0.1590 n1         1 LNH      -0.486000
     30 N30         -3.0660    -3.8450    -0.5070 nu         1 LNH      -0.940200
     31 C31         -2.2150    -4.9880    -0.6790 cx         1 LNH       0.157500
     32 C32         -2.6790    -6.2920    -0.0820 cx         1 LNH      -0.130400
     33 C33         -1.5370    -5.5360     0.5510 cx         1 LNH      -0.130400
     34 H1          -1.3630     7.2150     0.8110 hc         1 LNH       0.055033
     35 H1A          0.3970     7.1600     1.2440 hc         1 LNH       0.055033
     36 H1B         -0.0210     7.1990    -0.4100 hc         1 LNH       0.055033
     37 HN4          1.6080     5.4330     0.0530 hn         1 LNH       0.139000
     38 H6           3.4010     4.0330    -0.0340 ha         1 LNH       0.099000
     39 H7           4.3120     1.7400    -0.3310 ha         1 LNH       0.131000
     40 H10         -0.6300     2.4300     0.0110 ha         1 LNH       0.170000
     41 H12          1.4010    -2.2980    -0.5990 h4         1 LNH       0.212000
     42 H14          3.9180    -2.0320    -1.1710 h1         1 LNH       0.065700
     43 H14A         4.5920    -0.4000    -1.2340 h1         1 LNH       0.065700
     44 H15          4.7600    -0.3520     1.2210 hc         1 LNH       0.034700
     45 H15A         4.0620    -2.0520     1.2680 hc         1 LNH       0.034700
     46 H20         -0.6070    -2.7990    -0.5210 ha         1 LNH       0.139000
     47 H26         -6.4680    -0.2360    -0.0480 h4         1 LNH       0.042800
     48 HN30        -4.0860    -3.9490    -0.4830 hn         1 LNH       0.527000
     49 H31         -1.6630    -5.0250    -1.6220 h1         1 LNH       0.086700
     50 H32         -3.6290    -6.3090     0.4450 hc         1 LNH       0.083450
     51 H32A        -2.4440    -7.2040    -0.6260 hc         1 LNH       0.083450
     52 H33         -0.5340    -5.9380     0.4340 hc         1 LNH       0.083450
     53 H33A        -1.7210    -5.0380     1.5000 hc         1 LNH       0.083450
@<TRIPOS>BOND
     1     1     2 1   
     2     1    34 1   
     3     1    35 1   
     4     1    36 1   
     5     2     3 2   
     6     2     4 1   
     7     4     5 1   
     8     4    37 1   
     9     5     6 ar  
    10     5    10 ar  
    11     6     7 ar  
    12     6    38 1   
    13     7     8 ar  
    14     7    39 1   
    15     8     9 ar  
    16     8    13 1   
    17     9    10 ar  
    18     9    11 1   
    19    10    40 1   
    20    11    12 2   
    21    11    19 1   
    22    12    13 1   
    23    12    41 1   
    24    13    14 1   
    25    14    15 1   
    26    14    42 1   
    27    14    43 1   
    28    15    16 1   
    29    15    44 1   
    30    15    45 1   
    31    16    17 1   
    32    16    18 1   
    33    19    20 1   
    34    19    24 2   
    35    20    21 2   
    36    20    46 1   
    37    21    22 1   
    38    21    30 1   
    39    22    23 1   
    40    22    27 1   
    41    23    24 1   
    42    23    25 2   
    43    25    26 1   
    44    25    28 1   
    45    26    27 2   
    46    26    47 1   
    47    28    29 3   
    48    30    31 1   
    49    30    48 1   
    50    31    32 1   
    51    31    33 1   
    52    31    49 1   
    53    32    33 1   
    54    32    50 1   
    55    32    51 1   
    56    33    52 1   
    57    33    53 1   
@<TRIPOS>SUBSTRUCTURE
     1 LNH         1 TEMP              0 ****  ****    0 ROOT
