@<TRIPOS>MOLECULE
LNH
   53    57     1     0     0
SMALL
bcc


@<TRIPOS>ATOM
      1 C1          -0.4490     6.6160     0.6060 c3         1 LNH      -0.181100
      2 C2          -0.3930     5.1230     0.3930 c          1 LNH       0.662100
      3 O3          -1.4060     4.4470     0.3260 o          1 LNH      -0.565100
      4 N4           0.8620     4.6250     0.2660 ns         1 LNH      -0.471100
      5 C5           1.2830     3.3080     0.0340 ca         1 LNH       0.034600
      6 C6           2.6770     3.1320    -0.0950 ca         1 LNH      -0.181000
      7 C7           3.2330     1.8920    -0.3130 ca         1 LNH      -0.091000
      8 C8           2.3700     0.8050    -0.4040 ca         1 LNH      -0.087200
      9 C9           0.9760     0.9530    -0.2840 ca         1 LNH      -0.028800
     10 C10          0.4250     2.2210    -0.0640 ca         1 LNH      -0.101000
     11 C11          0.4180    -0.3670    -0.4250 cc         1 LNH      -0.291000
     12 C12          1.4930    -1.2130    -0.6190 cd         1 LNH      -0.044100
     13 N13          2.6500    -0.5230    -0.6170 na         1 LNH      -0.012400
     14 C14          3.9780    -1.1040    -0.7210 c3         1 LNH       0.050300
     15 C15          4.6330    -1.3030     0.6370 c3         1 LNH      -0.236400
     16 C16          6.0380    -1.9300     0.5650 c          1 LNH       0.933600
     17 O17          6.4630    -2.2470    -0.5640 o          1 LNH      -0.833800
     18 O18          6.6290    -2.0710     1.6520 o          1 LNH      -0.833800
     19 C19         -0.9720    -0.7650    -0.3810 cc         1 LNH       0.639100
     20 C20         -1.3260    -2.1280    -0.4470 cc         1 LNH      -0.413300
     21 C21         -2.6560    -2.4990    -0.3920 cd         1 LNH       0.315300
     22 N22         -3.5490    -1.4730    -0.2920 na         1 LNH       0.003200
     23 C23         -3.1440    -0.1660    -0.2350 cd         1 LNH       0.498500
     24 N24         -1.8770     0.2060    -0.2740 nd         1 LNH      -0.704000
     25 C25         -4.3420     0.5580    -0.1370 cc         1 LNH      -0.263300
     26 C26         -5.3600    -0.4150    -0.1470 cc         1 LNH       0.448500
     27 N27         -4.8860    -1.6340    -0.2390 nd         1 LNH      -0.637100
     28 C28         -4.4770     1.9520    -0.0520 cg         1 LNH       0.259500
     29 N29         -4.6020     3.0980     0.0210 n1         1 LNH      -0.396800
     30 N30         -3.1470    -3.7380    -0.4140 nu         1 LNH      -0.746600
     31 C31         -2.3250    -4.8890    -0.5800 cx         1 LNH       0.157500
     32 C32         -2.6460    -6.0890     0.2480 cx         1 LNH      -0.130400
     33 C33         -1.4150    -5.2920     0.5420 cx         1 LNH      -0.130400
     34 H1          -1.1450     6.8410     1.4130 hc         1 LNH       0.055033
     35 H1A          0.5140     7.0660     0.8410 hc         1 LNH       0.055033
     36 H1B         -0.8340     7.0920    -0.2970 hc         1 LNH       0.055033
     37 HN4          1.6100     5.2970     0.3370 hn         1 LNH       0.305500
     38 H6           3.3300     3.9930    -0.0210 ha         1 LNH       0.117000
     39 H7           4.3060     1.7860    -0.4070 ha         1 LNH       0.149000
     40 H10         -0.6410     2.3340     0.0250 ha         1 LNH       0.188000
     41 H12          1.5070    -2.2810    -0.7700 h4         1 LNH       0.162000
     42 H14          3.8770    -2.0540    -1.2440 h1         1 LNH       0.065700
     43 H14A         4.5820    -0.4570    -1.3580 h1         1 LNH       0.065700
     44 H15          4.7000    -0.3480     1.1680 hc         1 LNH       0.034700
     45 H15A         3.9940    -1.9390     1.2580 hc         1 LNH       0.034700
     46 H20         -0.5750    -2.8970    -0.5250 ha         1 LNH       0.157000
     47 H26         -6.4250    -0.2450    -0.0890 h4         1 LNH       0.042800
     48 HN30        -4.1510    -3.8420    -0.4580 hn         1 LNH       0.471800
     49 H31         -1.9700    -5.0600    -1.5920 h1         1 LNH       0.086700
     50 H32         -3.4750    -6.0090     0.9400 hc         1 LNH       0.083450
     51 H32A        -2.5390    -7.0590    -0.2190 hc         1 LNH       0.083450
     52 H33         -0.4510    -5.7050     0.2770 hc         1 LNH       0.083450
     53 H33A        -1.4140    -4.6720     1.4300 hc         1 LNH       0.083450
@<TRIPOS>BOND
     1     1     2 1   
     2     1    34 1   
     3     1    35 1   
     4     1    36 1   
     5     2     3 2   
     6     2     4 1   
     7     4     5 1   
     8     4    37 1   
     9     5     6 ar  
    10     5    10 ar  
    11     6     7 ar  
    12     6    38 1   
    13     7     8 ar  
    14     7    39 1   
    15     8     9 ar  
    16     8    13 1   
    17     9    10 ar  
    18     9    11 1   
    19    10    40 1   
    20    11    12 2   
    21    11    19 1   
    22    12    13 1   
    23    12    41 1   
    24    13    14 1   
    25    14    15 1   
    26    14    42 1   
    27    14    43 1   
    28    15    16 1   
    29    15    44 1   
    30    15    45 1   
    31    16    17 1   
    32    16    18 1   
    33    19    20 1   
    34    19    24 2   
    35    20    21 2   
    36    20    46 1   
    37    21    22 1   
    38    21    30 1   
    39    22    23 1   
    40    22    27 1   
    41    23    24 1   
    42    23    25 2   
    43    25    26 1   
    44    25    28 1   
    45    26    27 2   
    46    26    47 1   
    47    28    29 3   
    48    30    31 1   
    49    30    48 1   
    50    31    32 1   
    51    31    33 1   
    52    31    49 1   
    53    32    33 1   
    54    32    50 1   
    55    32    51 1   
    56    33    52 1   
    57    33    53 1   
@<TRIPOS>SUBSTRUCTURE
     1 LNH         1 TEMP              0 ****  ****    0 ROOT
