@<TRIPOS>MOLECULE
LNI
   19    18     1     0     0
SMALL
abcg2


@<TRIPOS>ATOM
      1 O01         24.6790    -2.3230     8.3480 o          1 LNI      -0.612000
      2 C01         25.8820    -2.6190     8.2880 c          1 LNI       0.734000
      3 C02         26.8280    -1.7010     9.1150 c3         1 LNI      -0.204400
      4 O02         26.4160    -3.5440     7.6510 o          1 LNI      -0.612000
      5 C03         28.2460    -2.2430     9.1410 c3         1 LNI      -0.040400
      6 S01         29.3380    -1.1510    10.0420 s6         1 LNI       0.551000
      7 C04         28.8460    -1.2190    11.7430 c3         1 LNI      -0.235100
      8 C05         30.9430    -1.8980     9.9900 c3         1 LNI      -0.235100
      9 O03         29.3450     0.2140     9.5180 o          1 LNI      -0.413000
     10 H2          26.8120    -0.7010     8.6750 hc         1 LNI       0.068700
     11 H3          26.4230    -1.6060    10.1240 hc         1 LNI       0.068700
     12 H4          28.3250    -3.2160     9.6300 h1         1 LNI       0.120200
     13 H5          28.6860    -2.3140     8.1450 h1         1 LNI       0.120200
     14 H6          29.5730    -0.6400    12.3120 h1         1 LNI       0.114700
     15 H7          27.8580    -0.7720    11.8280 h1         1 LNI       0.114700
     16 H8          28.8350    -2.2560    12.0700 h1         1 LNI       0.114700
     17 H9          31.6080    -1.2850    10.5980 h1         1 LNI       0.114700
     18 H10         30.8840    -2.9120    10.3790 h1         1 LNI       0.114700
     19 H11         31.2650    -1.8970     8.9500 h1         1 LNI       0.114700
@<TRIPOS>BOND
     1     1     2 1   
     2     2     3 1   
     3     2     4 1   
     4     3     5 1   
     5     3    10 1   
     6     3    11 1   
     7     5     6 1   
     8     5    12 1   
     9     5    13 1   
    10     6     7 1   
    11     6     8 1   
    12     6     9 2   
    13     7    14 1   
    14     7    15 1   
    15     7    16 1   
    16     8    17 1   
    17     8    18 1   
    18     8    19 1   
@<TRIPOS>SUBSTRUCTURE
     1 LNI         1 TEMP              0 ****  ****    0 ROOT
