@<TRIPOS>MOLECULE
LNI
   19    18     1     0     0
SMALL
No Charge or Current Charge


@<TRIPOS>ATOM
      1 O01         25.3060    -3.4880     8.8530 o          1 LNI      -0.612000
      2 C01         25.8880    -2.6050     8.2420 c          1 LNI       0.734000
      3 C02         26.7850    -1.6610     9.0430 c3         1 LNI      -0.204400
      4 O02         25.8700    -2.4760     7.0270 o          1 LNI      -0.612000
      5 C03         28.2150    -2.2650     9.1480 c3         1 LNI      -0.040400
      6 S01         29.3880    -1.2020    10.0430 s6         1 LNI       0.551000
      7 C04         28.8020    -0.9980    11.7360 c3         1 LNI      -0.235100
      8 C05         30.9750    -2.0530    10.1120 c3         1 LNI      -0.235100
      9 O03         29.5320     0.1020     9.3860 o          1 LNI      -0.413000
     10 H2          26.8870    -0.7060     8.5150 hc         1 LNI       0.068700
     11 H3          26.4050    -1.5690    10.0670 hc         1 LNI       0.068700
     12 H4          28.1910    -3.2280     9.6740 h1         1 LNI       0.120200
     13 H5          28.6390    -2.4210     8.1480 h1         1 LNI       0.120200
     14 H6          29.5670    -0.4490    12.2980 h1         1 LNI       0.114700
     15 H7          27.8650    -0.4310    11.7100 h1         1 LNI       0.114700
     16 H8          28.6430    -1.9920    12.1710 h1         1 LNI       0.114700
     17 H9          31.6740    -1.4260    10.6760 h1         1 LNI       0.114700
     18 H10         30.8300    -3.0180    10.6120 h1         1 LNI       0.114700
     19 H11         31.3310    -2.1980     9.0850 h1         1 LNI       0.114700
@<TRIPOS>BOND
     1     1     2 1   
     2     2     3 1   
     3     2     4 1   
     4     3     5 1   
     5     3    10 1   
     6     3    11 1   
     7     5     6 1   
     8     5    12 1   
     9     5    13 1   
    10     6     7 1   
    11     6     8 1   
    12     6     9 2   
    13     7    14 1   
    14     7    15 1   
    15     7    16 1   
    16     8    17 1   
    17     8    18 1   
    18     8    19 1   
@<TRIPOS>SUBSTRUCTURE
     1 LNI         1 TEMP              0 ****  ****    0 ROOT
