@<TRIPOS>MOLECULE
LNJ
   37    39     1     0     0
SMALL
No Charge or Current Charge


@<TRIPOS>ATOM
      1 C10          0.0950     1.6970     0.8520 ca         1 LNJ      -0.113000
      2 C11          1.3950     1.1680     0.9160 ca         1 LNJ      -0.082500
      3 C12         -2.0330     2.2510    -0.4260 c3         1 LNJ       0.021200
      4 C13         -3.0770     1.1840    -0.1240 ca         1 LNJ      -0.114300
      5 C15         -4.5790    -0.5830    -0.8890 ca         1 LNJ      -0.169500
      6 C17         -4.4590    -0.0310     1.4760 ca         1 LNJ      -0.169500
      7 C18         -3.5000     0.9580     1.1990 ca         1 LNJ      -0.067000
      8 N01          3.9100    -0.3780     1.0450 nc         1 LNJ      -0.728000
      9 C02          5.1110    -0.8240     0.8030 cd         1 LNJ       0.695300
     10 S03          5.7060    -0.7600    -0.8500 ss         1 LNJ      -0.105400
     11 C04          4.1520    -0.0570    -1.2670 cd         1 LNJ      -0.274000
     12 C05          3.3650     0.0440    -0.1420 cc         1 LNJ       0.391500
     13 C06          2.0160     0.6280    -0.2330 ca         1 LNJ      -0.124500
     14 C07          1.2780     0.5950    -1.4400 ca         1 LNJ      -0.082500
     15 C08         -0.0230     1.1250    -1.5010 ca         1 LNJ      -0.113000
     16 C09         -0.6200     1.6850    -0.3580 ca         1 LNJ      -0.066300
     17 C14         -3.6200     0.4070    -1.1660 ca         1 LNJ      -0.067000
     18 C16         -5.0030    -0.8050     0.4390 ca         1 LNJ       0.139100
     19 O19         -5.9410    -1.7620     0.7720 os         1 LNJ      -0.342100
     20 H1          -0.3580     2.1140     1.7490 ha         1 LNJ       0.110000
     21 H2           1.9250     1.1870     1.8660 ha         1 LNJ       0.121500
     22 H3          -2.2150     2.6860    -1.4160 hc         1 LNJ       0.052200
     23 H4          -2.1350     3.0860     0.2790 hc         1 LNJ       0.052200
     24 H5          -4.9780    -1.1650    -1.7150 ha         1 LNJ       0.120500
     25 H6          -4.7820    -0.2000     2.5000 ha         1 LNJ       0.120500
     26 H7          -3.0850     1.5480     2.0140 ha         1 LNJ       0.110000
     27 H8          -7.1060    -2.0090    -0.9550 h1         1 LNJ       0.040033
     28 H9          -5.8040    -3.2100    -0.7390 h1         1 LNJ       0.040033
     29 H10         -7.2690    -3.2930     0.2610 h1         1 LNJ       0.040033
     30 H11          3.9320     0.2440    -2.2820 h4         1 LNJ       0.161000
     31 H12          1.6990     0.1500    -2.3380 ha         1 LNJ       0.121500
     32 H13         -0.5700     1.0910    -2.4400 ha         1 LNJ       0.110000
     33 H14         -3.2960     0.5690    -2.1920 ha         1 LNJ       0.110000
     34 H15          6.8140    -1.2960     1.7600 hn         1 LNJ       0.476000
     35 H16          5.4390    -1.0070     2.7590 hn         1 LNJ       0.476000
     36 N21          5.8060    -1.2710     1.8530 nv         1 LNJ      -1.036900
     37 C20         -6.5570    -2.6080    -0.2160 c3         1 LNJ       0.148900
@<TRIPOS>BOND
     1     1     2 ar  
     2     1    16 ar  
     3     1    20 1   
     4     2    13 ar  
     5     2    21 1   
     6     3     4 1   
     7     3    16 1   
     8     3    22 1   
     9     3    23 1   
    10     4     7 ar  
    11     4    17 ar  
    12     5    17 ar  
    13     5    18 ar  
    14     5    24 1   
    15     6     7 ar  
    16     6    18 ar  
    17     6    25 1   
    18     7    26 1   
    19     8     9 2   
    20     8    12 1   
    21     9    10 1   
    22     9    36 1   
    23    10    11 1   
    24    11    12 2   
    25    11    30 1   
    26    12    13 1   
    27    13    14 ar  
    28    14    15 ar  
    29    14    31 1   
    30    15    16 ar  
    31    15    32 1   
    32    17    33 1   
    33    18    19 1   
    34    19    37 1   
    35    27    37 1   
    36    28    37 1   
    37    29    37 1   
    38    34    36 1   
    39    35    36 1   
@<TRIPOS>SUBSTRUCTURE
     1 LNJ         1 TEMP              0 ****  ****    0 ROOT
