@<TRIPOS>MOLECULE
LNJ
   37    39     1     0     0
SMALL
abcg2


@<TRIPOS>ATOM
      1 C10          0.0820     1.5900     0.8830 ca         1 LNJ      -0.113000
      2 C11          1.3510     1.0310     0.9190 ca         1 LNJ      -0.082500
      3 C12         -2.0320     2.2400    -0.3390 c3         1 LNJ       0.021200
      4 C13         -3.0780     1.1810    -0.0890 ca         1 LNJ      -0.114300
      5 C15         -4.6250    -0.4970    -0.9180 ca         1 LNJ      -0.169500
      6 C17         -4.3730    -0.1700     1.4500 ca         1 LNJ      -0.169500
      7 C18         -3.4420     0.8230     1.2090 ca         1 LNJ      -0.067000
      8 N01          3.9590    -0.0880     1.0080 nc         1 LNJ      -0.728000
      9 C02          5.1320    -0.6230     0.8850 cd         1 LNJ       0.695300
     10 S03          5.5240    -1.1300    -0.7360 ss         1 LNJ      -0.105400
     11 C04          3.9770    -0.5640    -1.2500 cd         1 LNJ      -0.274000
     12 C05          3.2930    -0.0490    -0.1930 cc         1 LNJ       0.391500
     13 C06          1.9450     0.5310    -0.2400 ca         1 LNJ      -0.124500
     14 C07          1.2230     0.6100    -1.4330 ca         1 LNJ      -0.082500
     15 C08         -0.0440     1.1670    -1.4610 ca         1 LNJ      -0.113000
     16 C09         -0.6380     1.6670    -0.3040 ca         1 LNJ      -0.066300
     17 C14         -3.6860     0.5050    -1.1380 ca         1 LNJ      -0.067000
     18 C16         -4.9750    -0.8420     0.3840 ca         1 LNJ       0.139100
     19 O19         -5.8750    -1.7930     0.7070 os         1 LNJ      -0.342100
     20 H1          -0.3500     1.9740     1.8000 ha         1 LNJ       0.110000
     21 H2           1.8880     0.9850     1.8560 ha         1 LNJ       0.121500
     22 H3          -2.2090     2.7060    -1.3100 hc         1 LNJ       0.052200
     23 H4          -2.1230     3.0290     0.4100 hc         1 LNJ       0.052200
     24 H5          -5.0710    -0.9900    -1.7720 ha         1 LNJ       0.120500
     25 H6          -4.6450    -0.4280     2.4660 ha         1 LNJ       0.120500
     26 H7          -2.9930     1.3340     2.0530 ha         1 LNJ       0.110000
     27 H8          -7.1030    -1.8090    -0.9790 h1         1 LNJ       0.040033
     28 H9          -5.8220    -3.0400    -0.9640 h1         1 LNJ       0.040033
     29 H10         -7.2080    -3.1880     0.1300 h1         1 LNJ       0.040033
     30 H11          3.6800    -0.6430    -2.2830 h4         1 LNJ       0.161000
     31 H12          1.6490     0.2420    -2.3580 ha         1 LNJ       0.121500
     32 H13         -0.5770     1.2200    -2.4030 ha         1 LNJ       0.110000
     33 H14         -3.4310     0.7600    -2.1610 ha         1 LNJ       0.110000
     34 H15          6.9660    -0.9480     1.7030 hn         1 LNJ       0.476000
     35 H16          5.8050    -0.3100     2.7480 hn         1 LNJ       0.476000
     36 N21          5.9870    -0.8410     1.9110 nv         1 LNJ      -1.036900
     37 C20         -6.5260    -2.4830    -0.3400 c3         1 LNJ       0.148900
@<TRIPOS>BOND
     1     1     2 ar  
     2     1    16 ar  
     3     1    20 1   
     4     2    13 ar  
     5     2    21 1   
     6     3     4 1   
     7     3    16 1   
     8     3    22 1   
     9     3    23 1   
    10     4     7 ar  
    11     4    17 ar  
    12     5    17 ar  
    13     5    18 ar  
    14     5    24 1   
    15     6     7 ar  
    16     6    18 ar  
    17     6    25 1   
    18     7    26 1   
    19     8     9 2   
    20     8    12 1   
    21     9    10 1   
    22     9    36 1   
    23    10    11 1   
    24    11    12 2   
    25    11    30 1   
    26    12    13 1   
    27    13    14 ar  
    28    14    15 ar  
    29    14    31 1   
    30    15    16 ar  
    31    15    32 1   
    32    17    33 1   
    33    18    19 1   
    34    19    37 1   
    35    27    37 1   
    36    28    37 1   
    37    29    37 1   
    38    34    36 1   
    39    35    36 1   
@<TRIPOS>SUBSTRUCTURE
     1 LNJ         1 TEMP              0 ****  ****    0 ROOT
