@<TRIPOS>MOLECULE
LNK
   17    16     1     0     0
SMALL
No Charge or Current Charge


@<TRIPOS>ATOM
      1 C1          -0.3320     0.0210     2.5570 c3         1 LNK      -0.088100
      2 C2           0.5240     0.0120     1.2760 c3         1 LNK      -0.075400
      3 C3          -0.3200     0.0090    -0.0170 c3         1 LNK      -0.077400
      4 C4           0.5390     0.0000    -1.3010 c3         1 LNK      -0.075400
      5 C5          -0.3040    -0.0030    -2.5910 c3         1 LNK      -0.088100
      6 H11          0.3090     0.0230     3.4460 hc         1 LNK       0.031367
      7 H12         -0.9690     0.9130     2.5910 hc         1 LNK       0.031367
      8 H13         -0.9750    -0.8670     2.6000 hc         1 LNK       0.031367
      9 H21          1.1800     0.8920     1.2800 hc         1 LNK       0.035950
     10 H22          1.1740    -0.8720     1.2880 hc         1 LNK       0.035950
     11 H31         -0.9760    -0.8710    -0.0170 hc         1 LNK       0.036700
     12 H32         -0.9700     0.8930    -0.0250 hc         1 LNK       0.036700
     13 H41          1.1940     0.8800    -1.3060 hc         1 LNK       0.035950
     14 H42          1.1890    -0.8840    -1.2970 hc         1 LNK       0.035950
     15 H51          0.3480    -0.0090    -3.4730 hc         1 LNK       0.031367
     16 H52         -0.9460    -0.8910    -2.6330 hc         1 LNK       0.031367
     17 H23         -0.9410     0.8890    -2.6410 hc         1 LNK       0.031367
@<TRIPOS>BOND
     1     1     2 1   
     2     1     6 1   
     3     1     7 1   
     4     1     8 1   
     5     2     3 1   
     6     2     9 1   
     7     2    10 1   
     8     3     4 1   
     9     3    11 1   
    10     3    12 1   
    11     4     5 1   
    12     4    13 1   
    13     4    14 1   
    14     5    15 1   
    15     5    16 1   
    16     5    17 1   
@<TRIPOS>SUBSTRUCTURE
     1 LNK         1 TEMP              0 ****  ****    0 ROOT
