@<TRIPOS>MOLECULE
LNK
   17    16     1     0     0
SMALL
bcc


@<TRIPOS>ATOM
      1 C1          -0.3320     0.0210     2.5190 c3         1 LNK      -0.088100
      2 C2           0.5280     0.0130     1.2620 c3         1 LNK      -0.075400
      3 C3          -0.3000     0.0060    -0.0170 c3         1 LNK      -0.077400
      4 C4           0.5420    -0.0010    -1.2870 c3         1 LNK      -0.075400
      5 C5          -0.3040    -0.0010    -2.5530 c3         1 LNK      -0.088100
      6 H11          0.2750     0.0250     3.4250 hc         1 LNK       0.031367
      7 H12         -0.9750     0.9030     2.5490 hc         1 LNK       0.031367
      8 H13         -0.9780    -0.8580     2.5580 hc         1 LNK       0.031367
      9 H21          1.1870     0.8860     1.2620 hc         1 LNK       0.035950
     10 H22          1.1850    -0.8630     1.2720 hc         1 LNK       0.035950
     11 H31         -0.9620    -0.8680    -0.0160 hc         1 LNK       0.036700
     12 H32         -0.9600     0.8820    -0.0250 hc         1 LNK       0.036700
     13 H41          1.2040     0.8710    -1.2870 hc         1 LNK       0.035950
     14 H42          1.1970    -0.8780    -1.2820 hc         1 LNK       0.035950
     15 H51          0.3130    -0.0110    -3.4520 hc         1 LNK       0.031367
     16 H52         -0.9550    -0.8770    -2.5900 hc         1 LNK       0.031367
     17 H23         -0.9410     0.8840    -2.5990 hc         1 LNK       0.031367
@<TRIPOS>BOND
     1     1     2 1   
     2     1     6 1   
     3     1     7 1   
     4     1     8 1   
     5     2     3 1   
     6     2     9 1   
     7     2    10 1   
     8     3     4 1   
     9     3    11 1   
    10     3    12 1   
    11     4     5 1   
    12     4    13 1   
    13     4    14 1   
    14     5    15 1   
    15     5    16 1   
    16     5    17 1   
@<TRIPOS>SUBSTRUCTURE
     1 LNK         1 TEMP              0 ****  ****    0 ROOT
