@<TRIPOS>MOLECULE
LNL
   49    48     1     0     0
SMALL
No Charge or Current Charge


@<TRIPOS>ATOM
      1 O1           2.9760    -0.2680    -7.2490 o          1 LNL      -0.744000
      2 C1           1.7700    -0.2220    -7.4400 c          1 LNL       0.717000
      3 O2           1.2020    -0.8440    -8.3240 o          1 LNL      -0.744000
      4 C2           0.9120     0.6200    -6.4760 c3         1 LNL      -0.204400
      5 C3           0.4610    -0.2410    -5.2710 c3         1 LNL      -0.053400
      6 C4          -0.4070     0.5380    -4.2580 c3         1 LNL      -0.079400
      7 C5          -0.8560    -0.3230    -3.0570 c3         1 LNL      -0.074400
      8 C6          -1.7240     0.4570    -2.0450 c3         1 LNL      -0.076400
      9 C7          -2.1730    -0.4040    -0.8440 c3         1 LNL      -0.072400
     10 C8          -3.0390     0.3730     0.1700 c3         1 LNL      -0.048200
     11 C9          -3.4630    -0.4920     1.3420 c2         1 LNL      -0.202200
     12 C10         -2.7900    -0.6920     2.4900 c2         1 LNL      -0.230200
     13 C11         -1.4320    -0.1330     2.8740 c3         1 LNL      -0.011000
     14 C12         -1.5270     0.6820     4.1500 c2         1 LNL      -0.202200
     15 C13         -0.5930     0.7910     5.1120 c2         1 LNL      -0.226200
     16 C14          0.7780     0.1430     5.1310 c3         1 LNL      -0.009000
     17 C15          1.7970     1.0610     5.7810 c2         1 LNL      -0.207200
     18 C16          2.5600     0.8060     6.8600 c2         1 LNL      -0.225200
     19 C17          2.5620    -0.4530     7.7080 c3         1 LNL      -0.043200
     20 C18          3.5550    -1.5050     7.1860 c3         1 LNL      -0.085100
     21 H21         -0.0090     0.9490    -6.9720 hc         1 LNL       0.014700
     22 H22          1.5040     1.4410    -6.0540 hc         1 LNL       0.014700
     23 H31          1.3470    -0.6340    -4.7570 hc         1 LNL       0.037700
     24 H32         -0.1040    -1.1070    -5.6380 hc         1 LNL       0.037700
     25 H41         -1.2940     0.9300    -4.7710 hc         1 LNL       0.023700
     26 H42          0.1580     1.4030    -3.8890 hc         1 LNL       0.023700
     27 H51          0.0310    -0.7150    -2.5430 hc         1 LNL       0.034700
     28 H52         -1.4220    -1.1880    -3.4250 hc         1 LNL       0.034700
     29 H61         -2.6110     0.8490    -2.5580 hc         1 LNL       0.032200
     30 H62         -1.1580     1.3220    -1.6770 hc         1 LNL       0.032200
     31 H71         -1.2860    -0.7970    -0.3310 hc         1 LNL       0.038200
     32 H72         -2.7390    -1.2690    -1.2100 hc         1 LNL       0.038200
     33 H81         -3.9280     0.7640    -0.3400 hc         1 LNL       0.043200
     34 H82         -2.4840     1.2520     0.5180 hc         1 LNL       0.043200
     35 H9          -4.4330    -0.9740     1.2000 ha         1 LNL       0.164000
     36 H10         -3.2220    -1.3410     3.2550 ha         1 LNL       0.162000
     37 H111        -1.0180     0.4920     2.0750 hc         1 LNL       0.052200
     38 H112        -0.7280    -0.9640     2.9970 hc         1 LNL       0.052200
     39 H12         -2.4740     1.2140     4.2610 ha         1 LNL       0.169000
     40 H13         -0.7990     1.4070     5.9890 ha         1 LNL       0.164000
     41 H141         1.1110    -0.0890     4.1120 hc         1 LNL       0.048700
     42 H142         0.7190    -0.8190     5.6520 hc         1 LNL       0.048700
     43 H15          1.9010     2.0210     5.2700 ha         1 LNL       0.170000
     44 H16          3.2640     1.5660     7.2080 ha         1 LNL       0.164000
     45 H171         1.5610    -0.8980     7.7500 hc         1 LNL       0.042200
     46 H172         2.8190    -0.2010     8.7440 hc         1 LNL       0.042200
     47 H181         3.5380    -2.3980     7.8230 hc         1 LNL       0.031033
     48 H182         3.2970    -1.8070     6.1640 hc         1 LNL       0.031033
     49 H183         4.5760    -1.1050     7.1810 hc         1 LNL       0.031033
@<TRIPOS>BOND
     1     1     2 1   
     2     2     3 1   
     3     2     4 1   
     4     4     5 1   
     5     4    21 1   
     6     4    22 1   
     7     5     6 1   
     8     5    23 1   
     9     5    24 1   
    10     6     7 1   
    11     6    25 1   
    12     6    26 1   
    13     7     8 1   
    14     7    27 1   
    15     7    28 1   
    16     8     9 1   
    17     8    29 1   
    18     8    30 1   
    19     9    10 1   
    20     9    31 1   
    21     9    32 1   
    22    10    11 1   
    23    10    33 1   
    24    10    34 1   
    25    11    12 2   
    26    11    35 1   
    27    12    13 1   
    28    12    36 1   
    29    13    14 1   
    30    13    37 1   
    31    13    38 1   
    32    14    15 2   
    33    14    39 1   
    34    15    16 1   
    35    15    40 1   
    36    16    17 1   
    37    16    41 1   
    38    16    42 1   
    39    17    18 2   
    40    17    43 1   
    41    18    19 1   
    42    18    44 1   
    43    19    20 1   
    44    19    45 1   
    45    19    46 1   
    46    20    47 1   
    47    20    48 1   
    48    20    49 1   
@<TRIPOS>SUBSTRUCTURE
     1 LNL         1 TEMP              0 ****  ****    0 ROOT
