@<TRIPOS>MOLECULE
LNL
   49    48     1     0     0
SMALL
abcg2


@<TRIPOS>ATOM
      1 O1           0.6310     1.4060    -9.5060 o          1 LNL      -0.744000
      2 C1           0.2180     0.5740    -8.6690 c          1 LNL       0.717000
      3 O2          -0.0670    -0.6180    -8.8970 o          1 LNL      -0.744000
      4 C2           0.0480     1.0970    -7.2320 c3         1 LNL      -0.204400
      5 C3          -0.4120     0.0850    -6.1950 c3         1 LNL      -0.053400
      6 C4          -0.5560     0.6980    -4.8070 c3         1 LNL      -0.079400
      7 C5          -1.0040    -0.2960    -3.7420 c3         1 LNL      -0.074400
      8 C6          -1.1550     0.3380    -2.3650 c3         1 LNL      -0.076400
      9 C7          -1.5790    -0.6480    -1.2840 c3         1 LNL      -0.072400
     10 C8          -1.7550     0.0170     0.0810 c3         1 LNL      -0.048200
     11 C9          -2.2070    -0.9450     1.1340 c2         1 LNL      -0.202200
     12 C10         -1.6050    -1.2250     2.2900 c2         1 LNL      -0.230200
     13 C11         -0.3450    -0.6070     2.8260 c3         1 LNL      -0.011000
     14 C12         -0.6650     0.3900     3.9020 c2         1 LNL      -0.202200
     15 C13         -0.2710     0.3750     5.1740 c2         1 LNL      -0.226200
     16 C14          0.6350    -0.6170     5.8450 c3         1 LNL      -0.009000
     17 C15          1.9630     0.0200     6.1440 c2         1 LNL      -0.207200
     18 C16          2.4100     0.4330     7.3290 c2         1 LNL      -0.225200
     19 C17          1.7220     0.3280     8.6540 c3         1 LNL      -0.043200
     20 C18          2.5070    -0.5420     9.6350 c3         1 LNL      -0.085100
     21 H21         -0.6560     1.9380    -7.2610 hc         1 LNL       0.014700
     22 H22          0.9990     1.5400    -6.9150 hc         1 LNL       0.014700
     23 H31          0.2950    -0.7480    -6.1500 hc         1 LNL       0.037700
     24 H32         -1.3690    -0.3490    -6.4990 hc         1 LNL       0.037700
     25 H41         -1.2720     1.5280    -4.8490 hc         1 LNL       0.023700
     26 H42          0.3990     1.1410    -4.5030 hc         1 LNL       0.023700
     27 H51         -0.2830    -1.1190    -3.6870 hc         1 LNL       0.034700
     28 H52         -1.9570    -0.7460    -4.0420 hc         1 LNL       0.034700
     29 H61         -1.8870     1.1510    -2.4200 hc         1 LNL       0.032200
     30 H62         -0.2070     0.8030    -2.0750 hc         1 LNL       0.032200
     31 H71         -0.8370    -1.4480    -1.2040 hc         1 LNL       0.038200
     32 H72         -2.5180    -1.1300    -1.5770 hc         1 LNL       0.038200
     33 H81         -2.5020     0.8140    -0.0130 hc         1 LNL       0.043200
     34 H82         -0.8230     0.5070     0.3710 hc         1 LNL       0.043200
     35 H9          -3.1320    -1.4720     0.9110 ha         1 LNL       0.164000
     36 H10         -2.0800    -1.9460     2.9490 ha         1 LNL       0.162000
     37 H111         0.2050    -0.1020     2.0280 hc         1 LNL       0.052200
     38 H112         0.3120    -1.3930     3.2040 hc         1 LNL       0.052200
     39 H12         -1.3090     1.2060     3.5850 ha         1 LNL       0.169000
     40 H13         -0.6060     1.1890     5.8120 ha         1 LNL       0.164000
     41 H141         0.7890    -1.4930     5.2110 hc         1 LNL       0.048700
     42 H142         0.1620    -0.9760     6.7620 hc         1 LNL       0.048700
     43 H15          2.5980     0.1810     5.2770 ha         1 LNL       0.170000
     44 H16          3.3960     0.8900     7.3600 ha         1 LNL       0.164000
     45 H171         0.7080    -0.0620     8.5440 hc         1 LNL       0.042200
     46 H172         1.6170     1.3310     9.0790 hc         1 LNL       0.042200
     47 H181         2.0140    -0.5830    10.6060 hc         1 LNL       0.031033
     48 H182         2.6020    -1.5630     9.2630 hc         1 LNL       0.031033
     49 H183         3.5140    -0.1510     9.7900 hc         1 LNL       0.031033
@<TRIPOS>BOND
     1     1     2 1   
     2     2     3 1   
     3     2     4 1   
     4     4     5 1   
     5     4    21 1   
     6     4    22 1   
     7     5     6 1   
     8     5    23 1   
     9     5    24 1   
    10     6     7 1   
    11     6    25 1   
    12     6    26 1   
    13     7     8 1   
    14     7    27 1   
    15     7    28 1   
    16     8     9 1   
    17     8    29 1   
    18     8    30 1   
    19     9    10 1   
    20     9    31 1   
    21     9    32 1   
    22    10    11 1   
    23    10    33 1   
    24    10    34 1   
    25    11    12 2   
    26    11    35 1   
    27    12    13 1   
    28    12    36 1   
    29    13    14 1   
    30    13    37 1   
    31    13    38 1   
    32    14    15 2   
    33    14    39 1   
    34    15    16 1   
    35    15    40 1   
    36    16    17 1   
    37    16    41 1   
    38    16    42 1   
    39    17    18 2   
    40    17    43 1   
    41    18    19 1   
    42    18    44 1   
    43    19    20 1   
    44    19    45 1   
    45    19    46 1   
    46    20    47 1   
    47    20    48 1   
    48    20    49 1   
@<TRIPOS>SUBSTRUCTURE
     1 LNL         1 TEMP              0 ****  ****    0 ROOT
