@<TRIPOS>MOLECULE
LNM
   26    25     1     0     0
SMALL
abcg2


@<TRIPOS>ATOM
      1 N13          0.2170    -1.9180     0.6170 n8         1 LNM      -0.983200
      2 C14         -0.0830    -0.5130     0.4330 c3         1 LNM       0.091500
      3 C15         -1.4870    -0.2660    -0.1210 c          1 LNM       0.550100
      4 N16         -2.1160     0.8180     0.3500 ns         1 LNM      -0.503900
      5 C17         -3.4140     1.2360    -0.1220 c3         1 LNM       0.093300
      6 C22          0.9220     0.1340    -0.5260 c3         1 LNM      -0.063400
      7 O23         -1.9830    -1.0010    -0.9670 o          1 LNM      -0.611100
      8 C27          2.3850     0.0400    -0.0920 c3         1 LNM      -0.056700
      9 C28          3.2840     0.5990    -1.1910 c3         1 LNM      -0.087600
     10 C29          2.6370     0.7690     1.2240 c3         1 LNM      -0.087600
     11 HN13        -0.4040    -2.3140     1.3120 hn         1 LNM       0.407000
     12 H14         -0.0020    -0.0270     1.4110 h1         1 LNM       0.060700
     13 H17         -3.3980     1.4830    -1.1850 h1         1 LNM       0.040700
     14 H17A        -4.1670     0.4640     0.0370 h1         1 LNM       0.040700
     15 H22          0.8080    -0.3320    -1.5110 hc         1 LNM       0.046200
     16 H22A         0.6590     1.1900    -0.6570 hc         1 LNM       0.046200
     17 H27          2.6290    -1.0170     0.0490 hc         1 LNM       0.068700
     18 H28          3.0730     1.6570    -1.3680 hc         1 LNM       0.031033
     19 H28A         4.3380     0.5130    -0.9230 hc         1 LNM       0.031033
     20 H28B         3.1380     0.0700    -2.1350 hc         1 LNM       0.031033
     21 H29          2.0780     0.3330     2.0530 hc         1 LNM       0.031033
     22 H29A         3.6930     0.7340     1.4940 hc         1 LNM       0.031033
     23 H29B         2.3510     1.8210     1.1450 hc         1 LNM       0.031033
     24 H25         -1.6630     1.3770     1.0540 hn         1 LNM       0.315500
     25 H26         -3.7120     2.1230     0.4290 h1         1 LNM       0.040700
     26 H2           0.0250    -2.4170    -0.2440 hn         1 LNM       0.407000
@<TRIPOS>BOND
     1     1     2 1   
     2     1    11 1   
     3     1    26 1   
     4     2     3 1   
     5     2     6 1   
     6     2    12 1   
     7     3     4 1   
     8     3     7 2   
     9     4     5 1   
    10     4    24 1   
    11     5    13 1   
    12     5    14 1   
    13     5    25 1   
    14     6     8 1   
    15     6    15 1   
    16     6    16 1   
    17     8     9 1   
    18     8    10 1   
    19     8    17 1   
    20     9    18 1   
    21     9    19 1   
    22     9    20 1   
    23    10    21 1   
    24    10    22 1   
    25    10    23 1   
@<TRIPOS>SUBSTRUCTURE
     1 LNM         1 TEMP              0 ****  ****    0 ROOT
