@<TRIPOS>MOLECULE
LNM
   26    25     1     0     0
SMALL
No Charge or Current Charge


@<TRIPOS>ATOM
      1 N13          0.1520    -1.9340     0.6040 n8         1 LNM      -0.983200
      2 C14         -0.0910    -0.4810     0.3100 c3         1 LNM       0.091500
      3 C15         -1.5160    -0.1630    -0.2730 c          1 LNM       0.550100
      4 N16         -2.2430     0.7850     0.4190 ns         1 LNM      -0.503900
      5 C17         -3.5950     1.2160     0.0540 c3         1 LNM       0.093300
      6 C22          1.0110     0.0830    -0.6300 c3         1 LNM      -0.063400
      7 O23         -1.9770    -0.7370    -1.2520 o          1 LNM      -0.611100
      8 C27          2.4670     0.0560    -0.0770 c3         1 LNM      -0.056700
      9 C28          3.4760     0.4910    -1.1640 c3         1 LNM      -0.087600
     10 C29          2.6420     0.9120     1.2020 c3         1 LNM      -0.087600
     11 HN13        -0.5730    -2.2780     1.2460 hn         1 LNM       0.407000
     12 H14         -0.0270     0.0570     1.2660 h1         1 LNM       0.060700
     13 H17         -3.5880     1.6360    -0.9600 h1         1 LNM       0.040700
     14 H17A        -4.2790     0.3580     0.0900 h1         1 LNM       0.040700
     15 H22          0.9770    -0.4710    -1.5760 hc         1 LNM       0.046200
     16 H22A         0.7570     1.1210    -0.8790 hc         1 LNM       0.046200
     17 H27          2.7110    -0.9820     0.1860 hc         1 LNM       0.068700
     18 H28          3.2950     1.5280    -1.4740 hc         1 LNM       0.031033
     19 H28A         4.5050     0.4200    -0.7900 hc         1 LNM       0.031033
     20 H28B         3.3960    -0.1510    -2.0490 hc         1 LNM       0.031033
     21 H29          2.0340     0.5220     2.0270 hc         1 LNM       0.031033
     22 H29A         3.6870     0.9030     1.5320 hc         1 LNM       0.031033
     23 H29B         2.3510     1.9530     1.0180 hc         1 LNM       0.031033
     24 H25         -1.8020     1.2070     1.2280 hn         1 LNM       0.315500
     25 H26         -3.9380     1.9820     0.7610 h1         1 LNM       0.040700
     26 H2          -0.0240    -2.4750    -0.2530 hn         1 LNM       0.407000
@<TRIPOS>BOND
     1     1     2 1   
     2     1    11 1   
     3     1    26 1   
     4     2     3 1   
     5     2     6 1   
     6     2    12 1   
     7     3     4 1   
     8     3     7 2   
     9     4     5 1   
    10     4    24 1   
    11     5    13 1   
    12     5    14 1   
    13     5    25 1   
    14     6     8 1   
    15     6    15 1   
    16     6    16 1   
    17     8     9 1   
    18     8    10 1   
    19     8    17 1   
    20     9    18 1   
    21     9    19 1   
    22     9    20 1   
    23    10    21 1   
    24    10    22 1   
    25    10    23 1   
@<TRIPOS>SUBSTRUCTURE
     1 LNM         1 TEMP              0 ****  ****    0 ROOT
