@<TRIPOS>MOLECULE
LNN
   28    29     1     0     0
SMALL
bcc


@<TRIPOS>ATOM
      1 C1           0.4750    -1.8780    -0.0150 ca         1 LNN       0.071100
      2 C2          -0.7770    -2.4640    -0.1530 ca         1 LNN      -0.157000
      3 C3          -1.8900    -1.6900    -0.4420 ca         1 LNN      -0.106000
      4 O1          -4.8200     1.6320     0.0850 o          1 LNN      -0.828800
      5 O2          -3.4570     0.5000     1.4370 o          1 LNN      -0.828800
      6 C11          3.5670     1.7120    -0.9700 ca         1 LNN      -0.141500
      7 C12          4.3780     1.5230     0.1410 ca         1 LNN      -0.144000
      8 C13          3.9650     0.6640     1.1520 ca         1 LNN      -0.141500
      9 C14          2.7540    -0.0060     1.0520 ca         1 LNN      -0.113000
     10 C6          -3.8260     0.9190     0.3270 c          1 LNN       0.935600
     11 C4          -1.7810    -0.3120    -0.6100 ca         1 LNN       0.008700
     12 C7          -0.5210     0.2560    -0.4720 ca         1 LNN      -0.113000
     13 C8           0.6170    -0.4960    -0.1720 cp         1 LNN      -0.075000
     14 O            1.5570    -2.6610     0.2870 oh         1 LNN      -0.533100
     15 C9           1.9300     0.1760    -0.0590 cp         1 LNN      -0.006000
     16 C10          2.3530     1.0450    -1.0660 ca         1 LNN      -0.113000
     17 H1          -0.8740    -3.5360    -0.0360 ha         1 LNN       0.120000
     18 H2          -2.8560    -2.1710    -0.5480 ha         1 LNN       0.132000
     19 H4           3.8780     2.3760    -1.7650 ha         1 LNN       0.118500
     20 H5           5.3240     2.0420     0.2200 ha         1 LNN       0.115000
     21 H6           4.5880     0.5170     2.0240 ha         1 LNN       0.118500
     22 H7           2.4430    -0.6600     1.8560 ha         1 LNN       0.138500
     23 H8          -3.6380     0.0010    -1.6120 hc         1 LNN       0.032200
     24 H9          -2.6780     1.4450    -1.4250 hc         1 LNN       0.032200
     25 H10         -0.4130     1.3290    -0.5940 ha         1 LNN       0.130000
     26 H11          1.9700    -2.9740    -0.5250 ho         1 LNN       0.400000
     27 H12          1.7300     1.1900    -1.9410 ha         1 LNN       0.138500
     28 C5          -2.9810     0.5270    -0.9120 c3         1 LNN      -0.192100
@<TRIPOS>BOND
     1     1     2 ar  
     2     1    13 ar  
     3     1    14 1   
     4     2     3 ar  
     5     2    17 1   
     6     3    11 ar  
     7     3    18 1   
     8     4    10 1   
     9     5    10 1   
    10     6     7 ar  
    11     6    16 ar  
    12     6    19 1   
    13     7     8 ar  
    14     7    20 1   
    15     8     9 ar  
    16     8    21 1   
    17     9    15 ar  
    18     9    22 1   
    19    10    28 1   
    20    11    12 ar  
    21    11    28 1   
    22    12    13 ar  
    23    12    25 1   
    24    13    15 1   
    25    14    26 1   
    26    15    16 ar  
    27    16    27 1   
    28    23    28 1   
    29    24    28 1   
@<TRIPOS>SUBSTRUCTURE
     1 LNN         1 TEMP              0 ****  ****    0 ROOT
