@<TRIPOS>MOLECULE
LNN
   28    29     1     0     0
SMALL
No Charge or Current Charge


@<TRIPOS>ATOM
      1 C1           0.4510    -1.9190    -0.0240 ca         1 LNN       0.071100
      2 C2          -0.8060    -2.5370    -0.1150 ca         1 LNN      -0.139000
      3 C3          -1.9510    -1.7800    -0.4100 ca         1 LNN      -0.088000
      4 O1          -3.3300     1.9810     0.8260 o          1 LNN      -0.723500
      5 O2          -4.5350     0.1970     0.9120 o          1 LNN      -0.723500
      6 C11          3.5700     1.7110    -1.0740 ca         1 LNN      -0.123500
      7 C12          4.3880     1.5330     0.0540 ca         1 LNN      -0.126000
      8 C13          3.9680     0.6930     1.0980 ca         1 LNN      -0.123500
      9 C14          2.7340     0.0270     1.0110 ca         1 LNN      -0.095000
     10 C6          -3.7330     0.9290     0.3510 c          1 LNN       0.725000
     11 C4          -1.8480    -0.3930    -0.6230 ca         1 LNN       0.008700
     12 C7          -0.5870     0.2250    -0.5290 ca         1 LNN      -0.095000
     13 C8           0.5810    -0.5170    -0.2220 cp         1 LNN      -0.075000
     14 O            1.5420    -2.7010     0.2240 oh         1 LNN      -0.572100
     15 C9           1.8990     0.1830    -0.1230 cp         1 LNN      -0.006000
     16 C10          2.3360     1.0440    -1.1590 ca         1 LNN      -0.095000
     17 H1          -0.8950    -3.6100     0.0370 ha         1 LNN       0.102000
     18 H2          -2.9190    -2.2720    -0.4760 ha         1 LNN       0.114000
     19 H4           3.8920     2.3640    -1.8820 ha         1 LNN       0.100500
     20 H5           5.3430     2.0500     0.1210 ha         1 LNN       0.097000
     21 H6           4.5960     0.5630     1.9760 ha         1 LNN       0.100500
     22 H7           2.4120    -0.6040     1.8370 ha         1 LNN       0.120500
     23 H8          -3.7830    -0.2290    -1.4860 hc         1 LNN       0.032200
     24 H9          -2.7610     1.2830    -1.5590 hc         1 LNN       0.032200
     25 H10         -0.5080     1.2980    -0.6830 ha         1 LNN       0.112000
     26 H11          2.3380    -2.1300     0.1750 ho         1 LNN       0.439000
     27 H12          1.7130     1.1860    -2.0390 ha         1 LNN       0.120500
     28 C5          -3.0900     0.4310    -0.9520 c3         1 LNN      -0.192100
@<TRIPOS>BOND
     1     1     2 ar  
     2     1    13 ar  
     3     1    14 1   
     4     2     3 ar  
     5     2    17 1   
     6     3    11 ar  
     7     3    18 1   
     8     4    10 1   
     9     5    10 1   
    10     6     7 ar  
    11     6    16 ar  
    12     6    19 1   
    13     7     8 ar  
    14     7    20 1   
    15     8     9 ar  
    16     8    21 1   
    17     9    15 ar  
    18     9    22 1   
    19    10    28 1   
    20    11    12 ar  
    21    11    28 1   
    22    12    13 ar  
    23    12    25 1   
    24    13    15 1   
    25    14    26 1   
    26    15    16 ar  
    27    16    27 1   
    28    23    28 1   
    29    24    28 1   
@<TRIPOS>SUBSTRUCTURE
     1 LNN         1 TEMP              0 ****  ****    0 ROOT
