@<TRIPOS>MOLECULE
LNO
   24    23     1     0     0
SMALL
abcg2


@<TRIPOS>ATOM
      1 N           -1.7990     0.6990     0.0700 n8         1 LNO      -0.984200
      2 CA          -0.3820     0.4380    -0.0960 c3         1 LNO       0.086500
      3 C           -0.1730    -0.1590    -1.4800 c          1 LNO       0.609100
      4 O           -0.9030    -1.0160    -1.9420 o          1 LNO      -0.562100
      5 CB           0.2510    -0.5170     0.9290 c3         1 LNO      -0.115400
      6 CG           0.0680    -0.1040     2.3900 c3         1 LNO      -0.061700
      7 CD1          0.6810    -1.1610     3.3040 c3         1 LNO      -0.090600
      8 CD2          0.6710     1.2660     2.6830 c3         1 LNO      -0.090600
      9 N2           0.8940     0.3440    -2.1290 ns         1 LNO      -0.385400
     10 ON2          1.3590    -0.2730    -3.2520 oh         1 LNO      -0.428100
     11 HN1         -1.9560     1.1760     0.9490 hn         1 LNO       0.408000
     12 HN2A        -2.3040    -0.1770     0.1300 hn         1 LNO       0.408000
     13 HA           0.1340     1.4020    -0.0430 h1         1 LNO       0.063700
     14 HB1          1.3240    -0.6060     0.7200 hc         1 LNO       0.055200
     15 HB2         -0.1750    -1.5160     0.7870 hc         1 LNO       0.055200
     16 HG          -1.0060    -0.0640     2.6050 hc         1 LNO       0.041700
     17 HD11         0.5080    -0.9250     4.3550 hc         1 LNO       0.035533
     18 HD12         0.2600    -2.1500     3.1120 hc         1 LNO       0.035533
     19 HD13         1.7620    -1.2270     3.1530 hc         1 LNO       0.035533
     20 HD21         1.7370     1.2790     2.4410 hc         1 LNO       0.035533
     21 HD22         0.1940     2.0660     2.1160 hc         1 LNO       0.035533
     22 HD23         0.5690     1.5180     3.7400 hc         1 LNO       0.035533
     23 HN2          1.5690     0.9350    -1.6650 hn         1 LNO       0.330500
     24 HO2          1.0390     0.2510    -3.9970 ho         1 LNO       0.448000
@<TRIPOS>BOND
     1     1     2 1   
     2     1    11 1   
     3     1    12 1   
     4     2     3 1   
     5     2     5 1   
     6     2    13 1   
     7     3     4 2   
     8     3     9 1   
     9     5     6 1   
    10     5    14 1   
    11     5    15 1   
    12     6     7 1   
    13     6     8 1   
    14     6    16 1   
    15     7    17 1   
    16     7    18 1   
    17     7    19 1   
    18     8    20 1   
    19     8    21 1   
    20     8    22 1   
    21     9    10 1   
    22     9    23 1   
    23    10    24 1   
@<TRIPOS>SUBSTRUCTURE
     1 LNO         1 TEMP              0 ****  ****    0 ROOT
