@<TRIPOS>MOLECULE
LNO
   24    23     1     0     0
SMALL
No Charge or Current Charge


@<TRIPOS>ATOM
      1 N           -1.8690     0.5820     0.1110 n8         1 LNO      -0.984200
      2 CA          -0.4120     0.3050    -0.1220 c3         1 LNO       0.086500
      3 C           -0.0600    -0.2820    -1.5420 c          1 LNO       0.609100
      4 O           -0.5290    -1.3380    -1.9580 o          1 LNO      -0.562100
      5 CB           0.1480    -0.6100     1.0040 c3         1 LNO      -0.115400
      6 CG           0.0810    -0.0480     2.4560 c3         1 LNO      -0.061700
      7 CD1          0.5580    -1.1090     3.4740 c3         1 LNO      -0.090600
      8 CD2          0.8770     1.2680     2.6290 c3         1 LNO      -0.090600
      9 N2           0.8020     0.4990    -2.3120 ns         1 LNO      -0.385400
     10 ON2          1.4080    -0.0250    -3.5190 oh         1 LNO      -0.428100
     11 HN1         -2.0070     0.8600     1.0890 hn         1 LNO       0.408000
     12 HN2A        -2.3930    -0.3000     0.0360 hn         1 LNO       0.408000
     13 HA           0.1110     1.2690    -0.0590 h1         1 LNO       0.063700
     14 HB1          1.1960    -0.8380     0.7720 hc         1 LNO       0.055200
     15 HB2         -0.3820    -1.5710     0.9680 hc         1 LNO       0.055200
     16 HG          -0.9670     0.1670     2.6960 hc         1 LNO       0.041700
     17 HD11         0.4600    -0.7340     4.5000 hc         1 LNO       0.035533
     18 HD12        -0.0420    -2.0240     3.3930 hc         1 LNO       0.035533
     19 HD13         1.6090    -1.3720     3.3040 hc         1 LNO       0.035533
     20 HD21         1.9280     1.1300     2.3450 hc         1 LNO       0.035533
     21 HD22         0.4550     2.0730     2.0160 hc         1 LNO       0.035533
     22 HD23         0.8480     1.6020     3.6740 hc         1 LNO       0.035533
     23 HN2          1.2690     1.2970    -1.8840 hn         1 LNO       0.330500
     24 HO2          1.2330     0.6760    -4.1920 ho         1 LNO       0.448000
@<TRIPOS>BOND
     1     1     2 1   
     2     1    11 1   
     3     1    12 1   
     4     2     3 1   
     5     2     5 1   
     6     2    13 1   
     7     3     4 2   
     8     3     9 1   
     9     5     6 1   
    10     5    14 1   
    11     5    15 1   
    12     6     7 1   
    13     6     8 1   
    14     6    16 1   
    15     7    17 1   
    16     7    18 1   
    17     7    19 1   
    18     8    20 1   
    19     8    21 1   
    20     8    22 1   
    21     9    10 1   
    22     9    23 1   
    23    10    24 1   
@<TRIPOS>SUBSTRUCTURE
     1 LNO         1 TEMP              0 ****  ****    0 ROOT
