@<TRIPOS>MOLECULE
LNP
   88    92     1     0     0
SMALL
No Charge or Current Charge


@<TRIPOS>ATOM
      1 CAA          0.0000     0.0000     0.0000 c6         1 LNP      -0.069400
      2 CAB          0.0000     0.0000     0.0000 c6         1 LNP      -0.012500
      3 CAC          0.0000     0.0000     0.0000 c2         1 LNP      -0.094400
      4 CAD          0.0000     0.0000     0.0000 c5         1 LNP       0.035400
      5 CAE          0.0000     0.0000     0.0000 c5         1 LNP      -0.028000
      6 CAF          0.0000     0.0010     0.0000 c6         1 LNP      -0.060400
      7 CAG      3162212.4310     0.0000     0.0000 c6         1 LNP      -0.024000
      8 CAH      96960422941504447542786416442798213800216575074169940007639847746132817528038699628963440066050228742729952696698879740055935806667689807711423917190554582722306637824.0000     0.0000     0.0000 c6         1 LNP      -0.038700
      9 CAI      2655376.2520     0.0000     0.0000 c6         1 LNP      -0.040200
     10 CAJ          0.0000     0.0000     0.0000 c2         1 LNP      -0.219200
     11 CAK          0.0000     0.0000     0.0000 c6         1 LNP      -0.061400
     12 CAL          0.0000     0.0000     0.0000 c6         1 LNP      -0.109400
     13 CAM          0.0000     0.0000     0.0000 c6         1 LNP       0.177300
     14 CAN          0.0000     0.0000     0.0000 c6         1 LNP      -0.028000
     15 CAO          0.0000     0.0000     0.0000 c5         1 LNP      -0.069400
     16 CAP          0.0000     0.0000     0.0000 c5         1 LNP      -0.073400
     17 CAQ          0.0000     0.0000     0.0000 c5         1 LNP      -0.054700
     18 CAR          0.0000     0.0000     0.0000 c2         1 LNP      -0.134200
     19 CAS          0.0000     0.0000     0.0000 c3         1 LNP      -0.082100
     20 CAT          0.0000     0.0000     0.0000 c3         1 LNP      -0.091100
     21 CAV          0.0000     0.0000     0.0000 c3         1 LNP      -0.047700
     22 CAW          0.0000     0.0000     0.0000 c3         1 LNP      -0.080100
     23 CAX          0.0000     0.0000     0.0000 c3         1 LNP      -0.080100
     24 CAY          0.0000     0.0000     0.0000 c3         1 LNP      -0.087100
     25 CAZ          0.0000     0.0000     0.0000 c3         1 LNP      -0.077400
     26 CBA          0.0000     0.0000     0.0000 c3         1 LNP      -0.074400
     27 CBB          0.0000     0.0000     0.0000 c3         1 LNP      -0.073400
     28 CBC          0.0000     0.0000     0.0000 c3         1 LNP      -0.059700
     29 CBD          0.0000     0.0000     0.0000 c3         1 LNP      -0.086600
     30 CBE          0.0000     0.0000     0.0000 c3         1 LNP      -0.086600
     31 CBF          0.0000     0.0000     0.0000 cu         1 LNP      -0.196400
     32 CBG          0.0000     0.0000     0.0000 cx         1 LNP      -0.093700
     33 CBH          0.0000     0.0000     0.0000 cx         1 LNP      -0.093700
     34 OBH          0.0000     0.0000     0.0000 oh         1 LNP      -0.661000
     35 HAA          0.0000     0.0000     0.0000 hc         1 LNP       0.038700
     36 HAAA         0.0000     0.0000     0.0000 hc         1 LNP       0.038700
     37 HAB          0.0000     0.0000     0.0000 hc         1 LNP       0.055700
     38 HAF          0.0000     0.0000     0.0000 hc         1 LNP       0.039200
     39 HAFA         0.0000     0.0000     0.0000 hc         1 LNP       0.039200
     40 HAH          0.0000     0.0000     0.0000 hc         1 LNP       0.047700
     41 HAI          0.0000     0.0000     0.0000 hc         1 LNP       0.046200
     42 HAIA         0.0000     0.0000     0.0000 hc         1 LNP       0.046200
     43 HAJ          0.0000     0.0000     0.0000 ha         1 LNP       0.173000
     44 HAK          0.0000     0.0000     0.0000 hc         1 LNP       0.044700
     45 HAKA         0.0000     0.0000     0.0000 hc         1 LNP       0.044700
     46 HAL          0.0000     0.0000     0.0000 hc         1 LNP       0.041700
     47 HALA         0.0000     0.0000     0.0000 hc         1 LNP       0.041700
     48 HAM          0.0000     0.0000     0.0000 h1         1 LNP       0.026700
     49 HAO          0.0000     0.0000     0.0000 hc         1 LNP       0.047700
     50 HAOA         0.0000     0.0000     0.0000 hc         1 LNP       0.047700
     51 HAP          0.0000     0.0000     0.0000 hc         1 LNP       0.040700
     52 HAPA         0.0000     0.0000     0.0000 hc         1 LNP       0.040700
     53 HAQ          0.0000     0.0000     0.0000 hc         1 LNP       0.050700
     54 HAR          0.0000     0.0000     0.0000 ha         1 LNP       0.177000
     55 HAS          0.0000     0.0000     0.0000 hc         1 LNP       0.033700
     56 HASA         0.0000     0.0000     0.0000 hc         1 LNP       0.033700
     57 HASB         0.0000     0.0000     0.0000 hc         1 LNP       0.033700
     58 HAT          0.0000     0.0000     0.0000 hc         1 LNP       0.034700
     59 HATA         0.0000     0.0000     0.0000 hc         1 LNP       0.034700
     60 HATB         0.0000     0.0000     0.0000 hc         1 LNP       0.034700
     61 HAV          0.0000     0.0000     0.0000 hc         1 LNP       0.045700
     62 HAW          0.0000     0.0000     0.0000 hc         1 LNP       0.035200
     63 HAWA         0.0000     0.0000     0.0000 hc         1 LNP       0.035200
     64 HAWB         0.0000     0.0000     0.0000 hc         1 LNP       0.035200
     65 HAX          0.0000     0.0000     0.0000 hc         1 LNP       0.035200
     66 HAXA         0.0000     0.0000     0.0000 hc         1 LNP       0.035200
     67 HAXB         0.0000     0.0000     0.0000 hc         1 LNP       0.035200
     68 HAY          0.0000     0.0000     0.0000 hc         1 LNP       0.032033
     69 HAYA         0.0000     0.0000     0.0000 hc         1 LNP       0.032033
     70 HAYB         0.0000     0.0000     0.0000 hc         1 LNP       0.032033
     71 HAZ          0.0000     0.0000     0.0000 hc         1 LNP       0.037700
     72 HAZA         0.0000     0.0000     0.0000 hc         1 LNP       0.037700
     73 HBA          0.0000     0.0000     0.0000 hc         1 LNP       0.038200
     74 HBAA         0.0000     0.0000     0.0000 hc         1 LNP       0.038200
     75 HBB          0.0000     0.0000     0.0000 hc         1 LNP       0.036700
     76 HBBA         0.0000     0.0000     0.0000 hc         1 LNP       0.036700
     77 HBC          0.0000     0.0000     0.0000 hc         1 LNP       0.043700
     78 HBD          0.0000     0.0000     0.0000 hc         1 LNP       0.031367
     79 HBDA         0.0000     0.0000     0.0000 hc         1 LNP       0.031367
     80 HBDB         0.0000     0.0000     0.0000 hc         1 LNP       0.031367
     81 HBE          0.0000     0.0000     0.0000 hc         1 LNP       0.031367
     82 HBEA         0.0000     0.0000     0.0000 hc         1 LNP       0.031367
     83 HBEB         0.0000     0.0000     0.0000 hc         1 LNP       0.031367
     84 HBG          0.0000     0.0000     0.0000 hc         1 LNP       0.072700
     85 HBGA         0.0000     0.0000     0.0000 hc         1 LNP       0.072700
     86 HBH          0.0000     0.0000     0.0000 hc         1 LNP       0.072700
     87 HBHA         0.0000     0.0000     0.0000 hc         1 LNP       0.072700
     88 HOBH         0.0000     0.0000     0.0000 ho         1 LNP       0.438000
@<TRIPOS>BOND
     1     1     2 1   
     2     1     6 1   
     3     1    35 1   
     4     1    36 1   
     5     2     3 1   
     6     2     7 1   
     7     2    37 1   
     8     3     4 1   
     9     3    10 2   
    10     4     5 1   
    11     4    15 1   
    12     4    18 1   
    13     5     6 1   
    14     5    17 1   
    15     5    19 1   
    16     6    38 1   
    17     6    39 1   
    18     7     8 1   
    19     7    11 1   
    20     7    20 1   
    21     8     9 1   
    22     8    14 1   
    23     8    40 1   
    24     9    10 1   
    25     9    41 1   
    26     9    42 1   
    27    10    43 1   
    28    11    12 1   
    29    11    44 1   
    30    11    45 1   
    31    12    13 1   
    32    12    46 1   
    33    12    47 1   
    34    13    14 1   
    35    13    34 1   
    36    13    48 1   
    37    14    22 1   
    38    14    23 1   
    39    15    16 1   
    40    15    49 1   
    41    15    50 1   
    42    16    17 1   
    43    16    51 1   
    44    16    52 1   
    45    17    21 1   
    46    17    53 1   
    47    18    31 2   
    48    18    54 1   
    49    19    55 1   
    50    19    56 1   
    51    19    57 1   
    52    20    58 1   
    53    20    59 1   
    54    20    60 1   
    55    21    24 1   
    56    21    25 1   
    57    21    61 1   
    58    22    62 1   
    59    22    63 1   
    60    22    64 1   
    61    23    65 1   
    62    23    66 1   
    63    23    67 1   
    64    24    68 1   
    65    24    69 1   
    66    24    70 1   
    67    25    26 1   
    68    25    71 1   
    69    25    72 1   
    70    26    27 1   
    71    26    73 1   
    72    26    74 1   
    73    27    28 1   
    74    27    75 1   
    75    27    76 1   
    76    28    29 1   
    77    28    30 1   
    78    28    77 1   
    79    29    78 1   
    80    29    79 1   
    81    29    80 1   
    82    30    81 1   
    83    30    82 1   
    84    30    83 1   
    85    31    32 1   
    86    31    33 1   
    87    32    33 1   
    88    32    84 1   
    89    32    85 1   
    90    33    86 1   
    91    33    87 1   
    92    34    88 1   
@<TRIPOS>SUBSTRUCTURE
     1 LNP         1 TEMP              0 ****  ****    0 ROOT
