@<TRIPOS>MOLECULE
LNP
   88    92     1     0     0
SMALL
abcg2


@<TRIPOS>ATOM
      1 CAA         -1.1370     1.1710    -1.5660 c6         1 LNP      -0.069400
      2 CAB         -1.9280     0.9970    -0.2610 c6         1 LNP      -0.012500
      3 CAC         -1.3650    -0.1660     0.5270 c2         1 LNP      -0.094400
      4 CAD          0.0840    -0.5460     0.2880 c5         1 LNP       0.035400
      5 CAE          0.9340     0.7050    -0.0760 c5         1 LNP      -0.028000
      6 CAF          0.3890     1.3260    -1.3730 c6         1 LNP      -0.060400
      7 CAG         -3.4770     0.9550    -0.4490 c6         1 LNP      -0.024000
      8 CAH         -4.1640     0.6380     0.9130 c6         1 LNP      -0.038700
      9 CAI         -3.5680    -0.6050     1.6000 c6         1 LNP      -0.040200
     10 CAJ         -2.1210    -0.8500     1.3740 c2         1 LNP      -0.219200
     11 CAK         -3.9010    -0.1100    -1.4660 c6         1 LNP      -0.061400
     12 CAL         -5.4180    -0.2500    -1.5710 c6         1 LNP      -0.109400
     13 CAM         -6.0800    -0.5390    -0.2290 c6         1 LNP       0.177300
     14 CAN         -5.7250     0.4990     0.8520 c6         1 LNP      -0.028000
     15 CAO          0.8600    -1.1120     1.4770 c5         1 LNP      -0.069400
     16 CAP          2.3320    -0.9090     1.0750 c5         1 LNP      -0.073400
     17 CAQ          2.3510     0.0810    -0.1230 c5         1 LNP      -0.054700
     18 CAR          0.0990    -1.5520    -0.8550 c2         1 LNP      -0.134200
     19 CAS          0.9020     1.7470     1.0550 c3         1 LNP      -0.082100
     20 CAT         -3.8770     2.3580    -0.9400 c3         1 LNP      -0.091100
     21 CAV          3.5750     1.0060    -0.1030 c3         1 LNP      -0.047700
     22 CAW         -6.2500     0.0130     2.2150 c3         1 LNP      -0.080100
     23 CAX         -6.4450     1.8360     0.5970 c3         1 LNP      -0.080100
     24 CAY          3.5580     2.0480    -1.2170 c3         1 LNP      -0.087100
     25 CAZ          4.8510     0.1560    -0.1810 c3         1 LNP      -0.077400
     26 CBA          6.1610     0.9190    -0.0100 c3         1 LNP      -0.074400
     27 CBB          7.3620    -0.0210     0.0280 c3         1 LNP      -0.073400
     28 CBC          8.7270     0.6670     0.0830 c3         1 LNP      -0.059700
     29 CBD          8.9000     1.5150     1.3400 c3         1 LNP      -0.086600
     30 CBE          9.8440    -0.3680    -0.0110 c3         1 LNP      -0.086600
     31 CBF          0.3690    -2.8410    -0.7810 cu         1 LNP      -0.196400
     32 CBG          0.4470    -4.1040    -1.5140 cx         1 LNP      -0.093700
     33 CBH          0.7360    -4.0300    -0.0190 cx         1 LNP      -0.093700
     34 OBH         -7.4890    -0.5970    -0.3510 oh         1 LNP      -0.661000
     35 HAA         -1.3430     0.3280    -2.2280 hc         1 LNP       0.038700
     36 HAAA        -1.4920     2.0470    -2.1070 hc         1 LNP       0.038700
     37 HAB         -1.7510     1.9050     0.3320 hc         1 LNP       0.055700
     38 HAF          0.8940     0.8920    -2.2400 hc         1 LNP       0.039200
     39 HAFA         0.6360     2.3890    -1.3990 hc         1 LNP       0.039200
     40 HAH         -3.9530     1.4900     1.5740 hc         1 LNP       0.047700
     41 HAI         -3.7410    -0.5260     2.6760 hc         1 LNP       0.046200
     42 HAIA        -4.0980    -1.5160     1.3040 hc         1 LNP       0.046200
     43 HAJ         -1.6920    -1.6840     1.9230 ha         1 LNP       0.173000
     44 HAK         -3.5030     0.1310    -2.4550 hc         1 LNP       0.044700
     45 HAKA        -3.4610    -1.0750    -1.1870 hc         1 LNP       0.044700
     46 HAL         -5.8570     0.6510    -2.0090 hc         1 LNP       0.041700
     47 HALA        -5.6530    -1.0640    -2.2640 hc         1 LNP       0.041700
     48 HAM         -5.7090    -1.5180     0.1140 h1         1 LNP       0.026700
     49 HAO          0.6110    -0.5520     2.3800 hc         1 LNP       0.047700
     50 HAOA         0.6250    -2.1530     1.6900 hc         1 LNP       0.047700
     51 HAP          2.9130    -0.5150     1.9140 hc         1 LNP       0.040700
     52 HAPA         2.7970    -1.8570     0.8000 hc         1 LNP       0.040700
     53 HAQ          2.4100    -0.5060    -1.0490 hc         1 LNP       0.050700
     54 HAR         -0.1780    -1.1870    -1.8370 ha         1 LNP       0.177000
     55 HAS          1.4210     1.4090     1.9530 hc         1 LNP       0.033700
     56 HASA         1.3990     2.6630     0.7310 hc         1 LNP       0.033700
     57 HASB        -0.1060     2.0260     1.3550 hc         1 LNP       0.033700
     58 HAT         -3.1750     2.7420    -1.6780 hc         1 LNP       0.034700
     59 HATA        -4.8500     2.3830    -1.4200 hc         1 LNP       0.034700
     60 HATB        -3.9010     3.0720    -0.1150 hc         1 LNP       0.034700
     61 HAV          3.5890     1.5380     0.8580 hc         1 LNP       0.045700
     62 HAW         -5.9280     0.6870     3.0120 hc         1 LNP       0.035200
     63 HAWA        -7.3390    -0.0000     2.2220 hc         1 LNP       0.035200
     64 HAWB        -5.9130    -0.9920     2.4700 hc         1 LNP       0.035200
     65 HAX         -6.4500     2.1530    -0.4430 hc         1 LNP       0.035200
     66 HAXA        -7.4880     1.7720     0.9070 hc         1 LNP       0.035200
     67 HAXB        -5.9850     2.6370     1.1790 hc         1 LNP       0.035200
     68 HAY          3.5180     1.5720    -2.2010 hc         1 LNP       0.032033
     69 HAYA         2.7030     2.7180    -1.1400 hc         1 LNP       0.032033
     70 HAYB         4.4510     2.6730    -1.1890 hc         1 LNP       0.032033
     71 HAZ          4.8160    -0.6220     0.5880 hc         1 LNP       0.037700
     72 HAZA         4.8640    -0.3740    -1.1420 hc         1 LNP       0.037700
     73 HBA          6.2980     1.6360    -0.8250 hc         1 LNP       0.038200
     74 HBAA         6.1140     1.5090     0.9120 hc         1 LNP       0.038200
     75 HBB          7.2660    -0.6970     0.8870 hc         1 LNP       0.036700
     76 HBBA         7.3300    -0.6620    -0.8610 hc         1 LNP       0.036700
     77 HBC          8.8030     1.3300    -0.7870 hc         1 LNP       0.043700
     78 HBD          8.8080     0.9000     2.2390 hc         1 LNP       0.031367
     79 HBDA         9.8860     1.9820     1.3630 hc         1 LNP       0.031367
     80 HBDB         8.1610     2.3130     1.4070 hc         1 LNP       0.031367
     81 HBE          9.7610    -0.9660    -0.9210 hc         1 LNP       0.031367
     82 HBEA        10.8270     0.1040    -0.0110 hc         1 LNP       0.031367
     83 HBEB         9.8060    -1.0540     0.8390 hc         1 LNP       0.031367
     84 HBG         -0.4730    -4.5850    -1.8290 hc         1 LNP       0.072700
     85 HBGA         1.2850    -4.2760    -2.1810 hc         1 LNP       0.072700
     86 HBH          1.7660    -4.1490     0.3020 hc         1 LNP       0.072700
     87 HBHA         0.0120    -4.4630     0.6620 hc         1 LNP       0.072700
     88 HOBH        -7.7000    -1.2830    -0.9920 ho         1 LNP       0.438000
@<TRIPOS>BOND
     1     1     2 1   
     2     1     6 1   
     3     1    35 1   
     4     1    36 1   
     5     2     3 1   
     6     2     7 1   
     7     2    37 1   
     8     3     4 1   
     9     3    10 2   
    10     4     5 1   
    11     4    15 1   
    12     4    18 1   
    13     5     6 1   
    14     5    17 1   
    15     5    19 1   
    16     6    38 1   
    17     6    39 1   
    18     7     8 1   
    19     7    11 1   
    20     7    20 1   
    21     8     9 1   
    22     8    14 1   
    23     8    40 1   
    24     9    10 1   
    25     9    41 1   
    26     9    42 1   
    27    10    43 1   
    28    11    12 1   
    29    11    44 1   
    30    11    45 1   
    31    12    13 1   
    32    12    46 1   
    33    12    47 1   
    34    13    14 1   
    35    13    34 1   
    36    13    48 1   
    37    14    22 1   
    38    14    23 1   
    39    15    16 1   
    40    15    49 1   
    41    15    50 1   
    42    16    17 1   
    43    16    51 1   
    44    16    52 1   
    45    17    21 1   
    46    17    53 1   
    47    18    31 2   
    48    18    54 1   
    49    19    55 1   
    50    19    56 1   
    51    19    57 1   
    52    20    58 1   
    53    20    59 1   
    54    20    60 1   
    55    21    24 1   
    56    21    25 1   
    57    21    61 1   
    58    22    62 1   
    59    22    63 1   
    60    22    64 1   
    61    23    65 1   
    62    23    66 1   
    63    23    67 1   
    64    24    68 1   
    65    24    69 1   
    66    24    70 1   
    67    25    26 1   
    68    25    71 1   
    69    25    72 1   
    70    26    27 1   
    71    26    73 1   
    72    26    74 1   
    73    27    28 1   
    74    27    75 1   
    75    27    76 1   
    76    28    29 1   
    77    28    30 1   
    78    28    77 1   
    79    29    78 1   
    80    29    79 1   
    81    29    80 1   
    82    30    81 1   
    83    30    82 1   
    84    30    83 1   
    85    31    32 1   
    86    31    33 1   
    87    32    33 1   
    88    32    84 1   
    89    32    85 1   
    90    33    86 1   
    91    33    87 1   
    92    34    88 1   
@<TRIPOS>SUBSTRUCTURE
     1 LNP         1 TEMP              0 ****  ****    0 ROOT
