@<TRIPOS>MOLECULE
LNQ
   45    45     1     0     0
SMALL
abcg2


@<TRIPOS>ATOM
      1 C1           3.9110    -1.1220    -6.8450 c3         1 LNQ      -0.089100
      2 C2           2.4470    -1.1950    -6.4350 c3         1 LNQ      -0.079400
      3 C3           1.9240     0.1630    -6.0120 c3         1 LNQ       0.160600
      4 O4           0.5750     0.0550    -5.6250 os         1 LNQ      -0.449000
      5 C5           0.0220     1.2830    -5.2290 c3         1 LNQ       0.164600
      6 C6          -1.4170     1.0910    -4.8230 c3         1 LNQ       0.161600
      7 O7          -1.4810     0.3100    -3.6570 os         1 LNQ      -0.434000
      8 C8          -2.7940     0.1200    -3.1960 c3         1 LNQ       0.162600
      9 C9          -2.7670    -0.6680    -1.9110 c3         1 LNQ       0.162600
     10 O10         -2.1320     0.0860    -0.9100 os         1 LNQ      -0.448000
     11 C11         -2.0660    -0.5830     0.3240 c3         1 LNQ       0.165600
     12 C12         -1.3560     0.3040     1.3280 c3         1 LNQ      -0.108400
     13 C13         -1.2880    -0.3610     2.6970 c3         1 LNQ       0.227800
     14 N14         -0.6620     0.4890     3.6900 nu         1 LNQ      -0.799200
     15 C15          0.5500     0.2910     4.1830 cc         1 LNQ      -0.015200
     16 C16          1.5630    -0.7610     4.0390 c          1 LNQ       0.484300
     17 C17          2.4300     0.0180     4.9850 c          1 LNQ       0.479300
     18 C18          1.3670     1.0120     5.0660 cd         1 LNQ      -0.017200
     19 O19          1.6590    -1.8010     3.4200 o          1 LNQ      -0.495100
     20 O20          3.5350    -0.1060     5.4750 o          1 LNQ      -0.496100
     21 N21          1.2520     2.1550     5.7240 nv         1 LNQ      -0.959000
     22 H11          4.2860    -2.0990    -7.1490 hc         1 LNQ       0.033367
     23 H12          4.0570    -0.4370    -7.6830 hc         1 LNQ       0.033367
     24 H13          4.5360    -0.7710    -6.0220 hc         1 LNQ       0.033367
     25 H21          1.8450    -1.5750    -7.2640 hc         1 LNQ       0.052200
     26 H22          2.3300    -1.9010    -5.6080 hc         1 LNQ       0.052200
     27 H31          2.5340     0.5550    -5.1840 h1         1 LNQ       0.017700
     28 H32          2.0310     0.8770    -6.8420 h1         1 LNQ       0.017700
     29 H51          0.5900     1.7210    -4.3950 h1         1 LNQ       0.028700
     30 H52          0.0520     2.0120    -6.0500 h1         1 LNQ       0.028700
     31 H61         -1.8580     2.0840    -4.6560 h1         1 LNQ       0.026700
     32 H62         -1.9810     0.6260    -5.6440 h1         1 LNQ       0.026700
     33 H81         -3.2990     1.0840    -3.0340 h1         1 LNQ       0.027700
     34 H82         -3.3970    -0.4360    -3.9270 h1         1 LNQ       0.027700
     35 H91         -3.8020    -0.9060    -1.6290 h1         1 LNQ       0.030700
     36 H92         -2.2520    -1.6260    -2.0710 h1         1 LNQ       0.030700
     37 H111        -3.0750    -0.8300     0.6880 h1         1 LNQ       0.021700
     38 H112        -1.5280    -1.5360     0.2200 h1         1 LNQ       0.021700
     39 H121        -0.3430     0.5220     0.9800 hc         1 LNQ       0.059200
     40 H122        -1.8830     1.2590     1.4110 hc         1 LNQ       0.059200
     41 H131        -2.2920    -0.6180     3.0440 h1         1 LNQ       0.060200
     42 H132        -0.7270    -1.2930     2.6400 h1         1 LNQ       0.060200
     43 H141        -1.1410     1.3450     3.9260 hn         1 LNQ       0.484000
     44 H211         1.9980     2.4790     6.3160 hn         1 LNQ       0.494000
     45 H212         0.4560     2.7600     5.6190 hn         1 LNQ       0.494000
@<TRIPOS>BOND
     1     1     2 1   
     2     1    22 1   
     3     1    23 1   
     4     1    24 1   
     5     2     3 1   
     6     2    25 1   
     7     2    26 1   
     8     3     4 1   
     9     3    27 1   
    10     3    28 1   
    11     4     5 1   
    12     5     6 1   
    13     5    29 1   
    14     5    30 1   
    15     6     7 1   
    16     6    31 1   
    17     6    32 1   
    18     7     8 1   
    19     8     9 1   
    20     8    33 1   
    21     8    34 1   
    22     9    10 1   
    23     9    35 1   
    24     9    36 1   
    25    10    11 1   
    26    11    12 1   
    27    11    37 1   
    28    11    38 1   
    29    12    13 1   
    30    12    39 1   
    31    12    40 1   
    32    13    14 1   
    33    13    41 1   
    34    13    42 1   
    35    14    15 1   
    36    14    43 1   
    37    15    16 1   
    38    15    18 2   
    39    16    17 1   
    40    16    19 2   
    41    17    18 1   
    42    17    20 2   
    43    18    21 1   
    44    21    44 1   
    45    21    45 1   
@<TRIPOS>SUBSTRUCTURE
     1 LNQ         1 TEMP              0 ****  ****    0 ROOT
