@<TRIPOS>MOLECULE
LNQ
   45    45     1     0     0
SMALL
No Charge or Current Charge


@<TRIPOS>ATOM
      1 C1           3.8130    -1.4940    -7.1340 c3         1 LNQ      -0.089100
      2 C2           2.3540    -1.3000    -6.6770 c3         1 LNQ      -0.079400
      3 C3           2.0960     0.0890    -6.0620 c3         1 LNQ       0.160600
      4 O4           0.7140     0.1470    -5.6790 os         1 LNQ      -0.449000
      5 C5           0.3140     1.3970    -5.0800 c3         1 LNQ       0.164600
      6 C6          -1.1870     1.3220    -4.7060 c3         1 LNQ       0.161600
      7 O7          -1.3470     0.4450    -3.5740 os         1 LNQ      -0.434000
      8 C8          -2.7100     0.2820    -3.1340 c3         1 LNQ       0.162600
      9 C9          -2.7380    -0.6680    -1.9120 c3         1 LNQ       0.162600
     10 O10         -2.1930     0.0200    -0.7670 os         1 LNQ      -0.448000
     11 C11         -2.1550    -0.7650     0.4340 c3         1 LNQ       0.165600
     12 C12         -1.5520     0.1120     1.5450 c3         1 LNQ      -0.108400
     13 C13         -1.4640    -0.6260     2.8930 c3         1 LNQ       0.227800
     14 N14         -0.8780     0.2490     3.9240 nu         1 LNQ      -0.799200
     15 C15          0.4840     0.4520     4.1450 cc         1 LNQ      -0.015200
     16 C16          1.6940    -0.1010     3.4610 c          1 LNQ       0.484300
     17 C17          2.5450     0.7380     4.4500 c          1 LNQ       0.479300
     18 C18          1.2440     1.2000     5.0270 cd         1 LNQ      -0.017200
     19 O19          1.9330    -0.8740     2.5310 o          1 LNQ      -0.495100
     20 O20          3.7450     0.9290     4.6560 o          1 LNQ      -0.496100
     21 N21          1.0260     2.0790     6.0830 nv         1 LNQ      -0.959000
     22 H11          3.9490    -2.4940    -7.5640 hc         1 LNQ       0.033367
     23 H12          4.0830    -0.7530    -7.8960 hc         1 LNQ       0.033367
     24 H13          4.5020    -1.3880    -6.2880 hc         1 LNQ       0.033367
     25 H21          1.6870    -1.4430    -7.5370 hc         1 LNQ       0.052200
     26 H22          2.1030    -2.0730    -5.9410 hc         1 LNQ       0.052200
     27 H31          2.7470     0.2320    -5.1900 h1         1 LNQ       0.017700
     28 H32          2.3270     0.8680    -6.8010 h1         1 LNQ       0.017700
     29 H51          0.9050     1.6110    -4.1800 h1         1 LNQ       0.028700
     30 H52          0.4610     2.2220    -5.7890 h1         1 LNQ       0.028700
     31 H61         -1.5400     2.3310    -4.4570 h1         1 LNQ       0.026700
     32 H62         -1.7620     0.9620    -5.5690 h1         1 LNQ       0.026700
     33 H81         -3.1540     1.2480    -2.8580 h1         1 LNQ       0.027700
     34 H82         -3.3180    -0.1560    -3.9360 h1         1 LNQ       0.027700
     35 H91         -3.7770    -0.9640    -1.7180 h1         1 LNQ       0.030700
     36 H92         -2.1610    -1.5740    -2.1400 h1         1 LNQ       0.030700
     37 H111        -3.1660    -1.0810     0.7230 h1         1 LNQ       0.021700
     38 H112        -1.5350    -1.6600     0.2940 h1         1 LNQ       0.021700
     39 H121        -0.5480     0.4340     1.2400 hc         1 LNQ       0.059200
     40 H122        -2.1640     1.0140     1.6640 hc         1 LNQ       0.059200
     41 H131        -2.4720    -0.9410     3.1990 h1         1 LNQ       0.060200
     42 H132        -0.8560    -1.5330     2.7740 h1         1 LNQ       0.060200
     43 H141        -1.5240     0.7480     4.5450 hn         1 LNQ       0.484000
     44 H211         1.8020     2.5150     6.5880 hn         1 LNQ       0.494000
     45 H212         0.0810     2.3230     6.3890 hn         1 LNQ       0.494000
@<TRIPOS>BOND
     1     1     2 1   
     2     1    22 1   
     3     1    23 1   
     4     1    24 1   
     5     2     3 1   
     6     2    25 1   
     7     2    26 1   
     8     3     4 1   
     9     3    27 1   
    10     3    28 1   
    11     4     5 1   
    12     5     6 1   
    13     5    29 1   
    14     5    30 1   
    15     6     7 1   
    16     6    31 1   
    17     6    32 1   
    18     7     8 1   
    19     8     9 1   
    20     8    33 1   
    21     8    34 1   
    22     9    10 1   
    23     9    35 1   
    24     9    36 1   
    25    10    11 1   
    26    11    12 1   
    27    11    37 1   
    28    11    38 1   
    29    12    13 1   
    30    12    39 1   
    31    12    40 1   
    32    13    14 1   
    33    13    41 1   
    34    13    42 1   
    35    14    15 1   
    36    14    43 1   
    37    15    16 1   
    38    15    18 2   
    39    16    17 1   
    40    16    19 2   
    41    17    18 1   
    42    17    20 2   
    43    18    21 1   
    44    21    44 1   
    45    21    45 1   
@<TRIPOS>SUBSTRUCTURE
     1 LNQ         1 TEMP              0 ****  ****    0 ROOT
