@<TRIPOS>MOLECULE
LNR
   23    23     1     0     0
SMALL
bcc


@<TRIPOS>ATOM
      1 OAC         -2.6870    -1.6430     0.0090 oh         1 LNR      -0.518100
      2 CAJ         -1.7760    -0.6420    -0.0100 ca         1 LNR       0.046100
      3 CAG         -0.4270    -0.8290    -0.2560 ca         1 LNR      -0.172000
      4 CAI         -2.2700     0.6480     0.2300 ca         1 LNR       0.124100
      5 OAB         -3.5800     0.8730     0.4730 oh         1 LNR      -0.495100
      6 CAE         -1.3900     1.7150     0.2110 ca         1 LNR      -0.140000
      7 CAF         -0.0350     1.5190    -0.0410 ca         1 LNR      -0.111000
      8 CAK          0.4620     0.2460    -0.2710 ca         1 LNR      -0.114300
      9 CAL          1.9340    -0.0250    -0.5010 c3         1 LNR       0.193400
     10 OAD          2.6300     1.0960    -0.9960 oh         1 LNR      -0.582800
     11 CAH          2.5810    -0.5700     0.7700 c3         1 LNR       0.115800
     12 NAA          3.9540    -0.9760     0.5240 n8         1 LNR      -0.882800
     13 HOAC        -2.2590    -2.4980    -0.1040 ho         1 LNR       0.436000
     14 HAG         -0.0610    -1.8330    -0.4470 ha         1 LNR       0.132000
     15 HOAB        -4.0670     0.0410     0.5040 ho         1 LNR       0.443000
     16 HAE         -1.7700     2.7130     0.3940 ha         1 LNR       0.149000
     17 HAF          0.6150     2.3840    -0.0550 ha         1 LNR       0.135000
     18 HAL          2.0290    -0.7910    -1.2770 h1         1 LNR       0.093700
     19 HOAD         2.7700     1.7240    -0.2780 ho         1 LNR       0.395000
     20 HAH          2.4670     0.1840     1.5660 h1         1 LNR       0.034200
     21 HAHA         2.0140    -1.4440     1.0960 h1         1 LNR       0.034200
     22 HNAA         4.5210    -0.1610     0.3300 hn         1 LNR       0.342300
     23 HNAB         4.3380    -1.3830     1.3670 hn         1 LNR       0.342300
@<TRIPOS>BOND
     1     1     2 1   
     2     1    13 1   
     3     2     3 ar  
     4     2     4 ar  
     5     3     8 ar  
     6     3    14 1   
     7     4     5 1   
     8     4     6 ar  
     9     5    15 1   
    10     6     7 ar  
    11     6    16 1   
    12     7     8 ar  
    13     7    17 1   
    14     8     9 1   
    15     9    10 1   
    16     9    11 1   
    17     9    18 1   
    18    10    19 1   
    19    11    12 1   
    20    11    20 1   
    21    11    21 1   
    22    12    22 1   
    23    12    23 1   
@<TRIPOS>SUBSTRUCTURE
     1 LNR         1 TEMP              0 ****  ****    0 ROOT
