@<TRIPOS>MOLECULE
LNS
   20    20     1     0     0
SMALL
abcg2


@<TRIPOS>ATOM
      1 N1          44.5870     6.3970    88.7060 ns         1 LNS      -0.492900
      2 C4          47.4860     8.0410    87.1920 ca         1 LNS      -0.138000
      3 C5          47.7190     8.8820    86.1140 ca         1 LNS      -0.124000
      4 C6          46.6510     9.2910    85.3360 ca         1 LNS      -0.119000
      5 C7          45.3650     8.8580    85.6590 ca         1 LNS       0.289500
      6 C8          44.1560     9.3090    84.8250 c          1 LNS       0.616500
      7 C1          44.1080     5.5020    89.7290 c3         1 LNS       0.103300
      8 C2          45.8740     6.7270    88.5820 c          1 LNS       0.507600
      9 O1          46.7570     6.3210    89.3280 o          1 LNS      -0.651100
     10 C3          46.1770     7.6510    87.4340 ca         1 LNS       0.260500
     11 N2          45.1530     8.0520    86.6920 nb         1 LNS      -0.652000
     12 O2          43.0400     8.9390    85.2190 o          1 LNS      -0.699500
     13 O3          44.4280    10.0070    83.8310 o          1 LNS      -0.699500
     14 H1          43.9440     6.7830    88.0320 hn         1 LNS       0.364500
     15 H2          48.2930     7.6970    87.8230 ha         1 LNS       0.120000
     16 H3          48.7250     9.2100    85.8850 ha         1 LNS       0.095000
     17 H4          46.8010     9.9420    84.4870 ha         1 LNS       0.139000
     18 H5          43.0260     5.4400    89.6560 h1         1 LNS       0.027367
     19 H6          44.5180     4.4970    89.6130 h1         1 LNS       0.027367
     20 H7          44.3650     5.8600    90.7270 h1         1 LNS       0.027367
@<TRIPOS>BOND
     1     1     7 1   
     2     1     8 1   
     3     1    14 1   
     4     2     3 ar  
     5     2    10 ar  
     6     2    15 1   
     7     3     4 ar  
     8     3    16 1   
     9     4     5 ar  
    10     4    17 1   
    11     5     6 1   
    12     5    11 ar  
    13     6    12 1   
    14     6    13 1   
    15     7    18 1   
    16     7    19 1   
    17     7    20 1   
    18     8     9 2   
    19     8    10 1   
    20    10    11 ar  
@<TRIPOS>SUBSTRUCTURE
     1 LNS         1 TEMP              0 ****  ****    0 ROOT
