@<TRIPOS>MOLECULE
LNS
   20    20     1     0     0
SMALL
No Charge or Current Charge


@<TRIPOS>ATOM
      1 N1          44.5760     6.3290    88.7840 ns         1 LNS      -0.492900
      2 C4          47.5000     8.0440    87.1620 ca         1 LNS      -0.138000
      3 C5          47.7510     8.9090    86.0880 ca         1 LNS      -0.124000
      4 C6          46.6680     9.3370    85.3060 ca         1 LNS      -0.119000
      5 C7          45.3570     8.8960    85.6060 ca         1 LNS       0.289500
      6 C8          44.1650     9.3780    84.7310 c          1 LNS       0.616500
      7 C1          44.0720     5.4430    89.8330 c3         1 LNS       0.103300
      8 C2          45.9010     6.6770    88.6070 c          1 LNS       0.507600
      9 O1          46.7740     6.2430    89.3540 o          1 LNS      -0.651100
     10 C3          46.1790     7.6260    87.4310 ca         1 LNS       0.260500
     11 N2          45.1300     8.0490    86.6620 nb         1 LNS      -0.652000
     12 O2          43.0280     8.9950    84.9930 o          1 LNS      -0.699500
     13 O3          44.3870    10.1360    83.7910 o          1 LNS      -0.699500
     14 H1          43.9260     6.7360    88.1180 hn         1 LNS       0.364500
     15 H2          48.3210     7.6970    87.7840 ha         1 LNS       0.120000
     16 H3          48.7630     9.2420    85.8660 ha         1 LNS       0.095000
     17 H4          46.8410    10.0080    84.4690 ha         1 LNS       0.139000
     18 H5          42.9840     5.3440    89.7350 h1         1 LNS       0.027367
     19 H6          44.5370     4.4530    89.7340 h1         1 LNS       0.027367
     20 H7          44.3110     5.8640    90.8180 h1         1 LNS       0.027367
@<TRIPOS>BOND
     1     1     7 1   
     2     1     8 1   
     3     1    14 1   
     4     2     3 ar  
     5     2    10 ar  
     6     2    15 1   
     7     3     4 ar  
     8     3    16 1   
     9     4     5 ar  
    10     4    17 1   
    11     5     6 1   
    12     5    11 ar  
    13     6    12 1   
    14     6    13 1   
    15     7    18 1   
    16     7    19 1   
    17     7    20 1   
    18     8     9 2   
    19     8    10 1   
    20    10    11 ar  
@<TRIPOS>SUBSTRUCTURE
     1 LNS         1 TEMP              0 ****  ****    0 ROOT
