@<TRIPOS>MOLECULE
LNT
   38    37     1     0     0
SMALL
No Charge or Current Charge


@<TRIPOS>ATOM
      1 N14         -1.8020     1.8470     0.5430 n8         1 LNT      -1.051200
      2 CA          -1.7140     0.3670     0.2570 c3         1 LNT       0.144500
      3 C16         -0.3860    -0.0660    -0.5350 c3         1 LNT       0.626200
      4 C17         -3.0260    -0.1130    -0.4440 c3         1 LNT      -0.053400
      5 C18         -4.3480     0.0800     0.3590 c3         1 LNT      -0.058700
      6 C19         -5.5750    -0.2940    -0.5040 c3         1 LNT      -0.083100
      7 C20         -4.3630    -0.7060     1.6930 c3         1 LNT      -0.083100
      8 O21         -0.2780    -1.4130    -0.6890 oh         1 LNT      -0.712000
      9 O22         -0.3090     0.5070    -1.7960 oh         1 LNT      -0.712000
     10 N23          0.8070     0.2790     0.1710 n7         1 LNT      -0.938400
     11 C24          2.1840     0.1720    -0.5040 c3         1 LNT       0.069500
     12 C            2.7610    -1.2720    -0.7740 c          1 LNT       0.738000
     13 O            2.2450    -2.2260    -0.2010 o          1 LNT      -0.705000
     14 C27          3.2610     1.0100     0.2630 c3         1 LNT       0.164300
     15 OG1          3.4130     0.5620     1.6190 oh         1 LNT      -0.636000
     16 C29          2.9490     2.5240     0.2800 c3         1 LNT      -0.134100
     17 H           -1.1150     2.0880     1.2650 hn         1 LNT       0.397000
     18 H2          -1.4720     2.3550    -0.2860 hn         1 LNT       0.397000
     19 H15         -1.6650    -0.1490     1.2250 h1         1 LNT       0.081700
     20 H17         -3.1220     0.4090    -1.4030 hc         1 LNT       0.049200
     21 H17A        -2.9310    -1.1790    -0.6850 hc         1 LNT       0.049200
     22 H18         -4.4480     1.1450     0.6040 hc         1 LNT       0.051700
     23 H19         -5.5480    -1.3540    -0.7840 hc         1 LNT       0.025033
     24 H19A        -6.5070    -0.1070     0.0440 hc         1 LNT       0.025033
     25 H19B        -5.6010     0.3040    -1.4230 hc         1 LNT       0.025033
     26 H20         -3.5820    -0.3480     2.3740 hc         1 LNT       0.025033
     27 H20A        -5.3250    -0.5820     2.2040 hc         1 LNT       0.025033
     28 H20B        -4.2050    -1.7770     1.5180 hc         1 LNT       0.025033
     29 HO21         0.6510    -1.5210    -0.3680 ho         1 LNT       0.482500
     30 HO22        -1.1780     0.3140    -2.1940 ho         1 LNT       0.482500
     31 HN23         0.6770     1.2670     0.3840 hn         1 LNT       0.407000
     32 H24          2.1310     0.6340    -1.4990 h1         1 LNT       0.042700
     33 OXT          3.6220    -1.4010    -1.6360 o          1 LNT      -0.705000
     34 H27          4.2140     0.8880    -0.2710 h1         1 LNT       0.059700
     35 HOG1         3.9440     1.2410     2.0850 ho         1 LNT       0.411000
     36 H29          3.7690     3.0820     0.7490 hc         1 LNT       0.023700
     37 H29A         2.8290     2.9010    -0.7420 hc         1 LNT       0.023700
     38 H29B         2.0280     2.7370     0.8360 hc         1 LNT       0.023700
@<TRIPOS>BOND
     1     1     2 1   
     2     1    17 1   
     3     1    18 1   
     4     2     3 1   
     5     2     4 1   
     6     2    19 1   
     7     3     8 1   
     8     3     9 1   
     9     3    10 1   
    10     4     5 1   
    11     4    20 1   
    12     4    21 1   
    13     5     6 1   
    14     5     7 1   
    15     5    22 1   
    16     6    23 1   
    17     6    24 1   
    18     6    25 1   
    19     7    26 1   
    20     7    27 1   
    21     7    28 1   
    22     8    29 1   
    23     9    30 1   
    24    10    11 1   
    25    10    31 1   
    26    11    12 1   
    27    11    14 1   
    28    11    32 1   
    29    12    13 1   
    30    12    33 1   
    31    14    15 1   
    32    14    16 1   
    33    14    34 1   
    34    15    35 1   
    35    16    36 1   
    36    16    37 1   
    37    16    38 1   
@<TRIPOS>SUBSTRUCTURE
     1 LNT         1 TEMP              0 ****  ****    0 ROOT
