@<TRIPOS>MOLECULE
LNT
   38    37     1     0     0
SMALL
bcc


@<TRIPOS>ATOM
      1 N14         -1.6960     1.6020     0.9140 n8         1 LNT      -0.940800
      2 CA          -1.6340     0.2680     0.3370 c3         1 LNT       0.144500
      3 C16         -0.3720    -0.0400    -0.5190 c3         1 LNT       0.579800
      4 C17         -2.9170     0.0070    -0.4500 c3         1 LNT      -0.053400
      5 C18         -4.2000     0.0430     0.3850 c3         1 LNT      -0.058700
      6 C19         -5.4150    -0.0980    -0.5270 c3         1 LNT      -0.083100
      7 C20         -4.2200    -1.0350     1.4630 c3         1 LNT      -0.083100
      8 O21         -0.3940    -1.3550    -0.9310 oh         1 LNT      -0.649800
      9 O22         -0.3930     0.7150    -1.7260 oh         1 LNT      -0.649800
     10 N23          0.7980     0.1980     0.2780 n7         1 LNT      -0.883200
     11 C24          2.1020     0.0350    -0.3530 c3         1 LNT       0.069500
     12 C            2.6620    -1.3910    -0.1320 c          1 LNT       0.948600
     13 O            1.8070    -2.3110    -0.0100 o          1 LNT      -0.810300
     14 C27          3.0730     1.1210     0.0970 c3         1 LNT       0.141100
     15 OG1          3.1720     1.0510     1.5080 oh         1 LNT      -0.573800
     16 C29          2.6570     2.5140    -0.3600 c3         1 LNT      -0.134100
     17 H           -0.9780     1.7720     1.6040 hn         1 LNT       0.341800
     18 H2          -1.6490     2.3330     0.2150 hn         1 LNT       0.341800
     19 H15         -1.5850    -0.4310     1.1770 h1         1 LNT       0.081700
     20 H17         -2.9980     0.7520    -1.2490 hc         1 LNT       0.049200
     21 H17A        -2.8510    -0.9660    -0.9440 hc         1 LNT       0.049200
     22 H18         -4.2550     1.0180     0.8790 hc         1 LNT       0.051700
     23 H19         -5.4020    -1.0580    -1.0510 hc         1 LNT       0.025033
     24 H19A        -6.3470    -0.0480     0.0390 hc         1 LNT       0.025033
     25 H19B        -5.4440     0.6890    -1.2830 hc         1 LNT       0.025033
     26 H20         -3.4150    -0.9090     2.1880 hc         1 LNT       0.025033
     27 H20A        -5.1600    -1.0170     2.0180 hc         1 LNT       0.025033
     28 H20B        -4.1170    -2.0300     1.0230 hc         1 LNT       0.025033
     29 HO21         0.4010    -1.8120    -0.5240 ho         1 LNT       0.443500
     30 HO22        -0.3850     1.6530    -1.5100 ho         1 LNT       0.443500
     31 HN23         0.7330     1.0670     0.7850 hn         1 LNT       0.351800
     32 H24          2.0220     0.1520    -1.4450 h1         1 LNT       0.042700
     33 OXT          3.8880    -1.5560    -0.1500 o          1 LNT      -0.810300
     34 H27          4.0380     0.8920    -0.3670 h1         1 LNT       0.059700
     35 HOG1         3.7810     1.7370     1.7970 ho         1 LNT       0.372000
     36 H29          3.4110     3.2510    -0.0760 hc         1 LNT       0.023700
     37 H29A         2.5570     2.5550    -1.4460 hc         1 LNT       0.023700
     38 H29B         1.7110     2.8350     0.0800 hc         1 LNT       0.023700
@<TRIPOS>BOND
     1     1     2 1   
     2     1    17 1   
     3     1    18 1   
     4     2     3 1   
     5     2     4 1   
     6     2    19 1   
     7     3     8 1   
     8     3     9 1   
     9     3    10 1   
    10     4     5 1   
    11     4    20 1   
    12     4    21 1   
    13     5     6 1   
    14     5     7 1   
    15     5    22 1   
    16     6    23 1   
    17     6    24 1   
    18     6    25 1   
    19     7    26 1   
    20     7    27 1   
    21     7    28 1   
    22     8    29 1   
    23     9    30 1   
    24    10    11 1   
    25    10    31 1   
    26    11    12 1   
    27    11    14 1   
    28    11    32 1   
    29    12    13 1   
    30    12    33 1   
    31    14    15 1   
    32    14    16 1   
    33    14    34 1   
    34    15    35 1   
    35    16    36 1   
    36    16    37 1   
    37    16    38 1   
@<TRIPOS>SUBSTRUCTURE
     1 LNT         1 TEMP              0 ****  ****    0 ROOT
