@<TRIPOS>MOLECULE
LNV
   45    45     1     0     0
SMALL
abcg2


@<TRIPOS>ATOM
      1 CAA         -0.2120    -2.1010    -0.1000 ce         1 LNV       0.040900
      2 CAB         -1.4300    -1.6780     0.2400 c2         1 LNV      -0.417200
      3 CAC         -1.7590    -0.2340     0.4840 c6         1 LNV       0.278700
      4 CAD         -0.6030     0.6460     0.0000 c6         1 LNV       0.055700
      5 CAE          0.7140    -0.0030     0.4370 c6         1 LNV       0.159300
      6 OAF          0.8540    -1.2700    -0.1760 os         1 LNV      -0.297100
      7 CAG          0.1150    -3.5490    -0.4470 c          1 LNV       0.725200
      8 OAH          1.2960    -3.7880    -0.7460 o          1 LNV      -0.695000
      9 OAI         -0.8350    -4.3520    -0.3980 o          1 LNV      -0.695000
     10 CAJ          1.9510     0.8160     0.0800 c3         1 LNV       0.155300
     11 CAK          3.2480     0.0730     0.4570 c3         1 LNV       0.146300
     12 CAL          4.4760     0.9270     0.1850 c3         1 LNV       0.125600
     13 OAM          5.6250     0.1730     0.4940 oh         1 LNV      -0.638000
     14 OAW          1.9320     1.1020    -1.3000 os         1 LNV      -0.429000
     15 CAX          2.1150     2.4540    -1.6500 c3         1 LNV       0.151900
     16 OAY          3.2070    -0.3580     1.7990 oh         1 LNV      -0.678000
     17 NAZ         -2.9780     0.1790    -0.1680 nu         1 LNV      -0.902400
     18 CBA         -4.2050    -0.0720     0.3780 c2         1 LNV       0.807100
     19 NBB         -4.3100    -0.5170     1.5770 n2         1 LNV      -0.901100
     20 NBC         -5.2580     0.2850    -0.4370 nv         1 LNV      -1.074200
     21 CBE         -1.3630     4.3140     0.5420 c3         1 LNV      -0.182100
     22 OBF         -1.5020     2.9360    -1.4040 o          1 LNV      -0.617100
     23 NBG         -0.7270     1.9900     0.5010 ns         1 LNV      -0.490900
     24 HAB         -2.2290    -2.4020     0.3100 ha         1 LNV       0.216000
     25 HAC         -1.9060    -0.0620     1.5540 h1         1 LNV       0.070700
     26 HAD         -0.6160     0.6970    -1.0900 h1         1 LNV       0.103700
     27 HAE          0.6910    -0.1320     1.5290 h1         1 LNV       0.046700
     28 HAJ          1.9030     1.7420     0.6720 h1         1 LNV       0.015700
     29 HAK          3.3140    -0.8360    -0.1480 h1         1 LNV       0.143700
     30 HAL          4.4780     1.2380    -0.8650 h1         1 LNV       0.011700
     31 HALA         4.4200     1.8440     0.7940 h1         1 LNV       0.011700
     32 HOAM         6.3940     0.7220     0.3140 ho         1 LNV       0.426000
     33 HAX          3.1420     2.7960    -1.4850 h1         1 LNV       0.021367
     34 HAXA         1.8920     2.5520    -2.7120 h1         1 LNV       0.021367
     35 HAXB         1.4470     3.1200    -1.0970 h1         1 LNV       0.021367
     36 HOAY         3.2270     0.4160     2.3730 ho         1 LNV       0.472000
     37 HNAZ        -2.9270     0.2810    -1.1690 hn         1 LNV       0.477000
     38 HNBB        -5.2850    -0.5860     1.8440 hn         1 LNV       0.359400
     39 HNBC        -5.0880     0.2920    -1.4310 hn         1 LNV       0.444000
     40 HNBA        -6.1360    -0.1570    -0.2140 hn         1 LNV       0.444000
     41 HBE         -2.4050     4.6320     0.5140 hc         1 LNV       0.051700
     42 HBEA        -1.0510     4.2470     1.5830 hc         1 LNV       0.051700
     43 HBEB        -0.7720     5.0900     0.0540 hc         1 LNV       0.051700
     44 HNBG        -0.5940     2.1280     1.4910 hn         1 LNV       0.301500
     45 CBD         -1.2160     3.0190    -0.2190 c          1 LNV       0.606100
@<TRIPOS>BOND
     1     1     2 2   
     2     1     6 1   
     3     1     7 1   
     4     2     3 1   
     5     2    24 1   
     6     3     4 1   
     7     3    17 1   
     8     3    25 1   
     9     4     5 1   
    10     4    23 1   
    11     4    26 1   
    12     5     6 1   
    13     5    10 1   
    14     5    27 1   
    15     7     8 1   
    16     7     9 1   
    17    10    11 1   
    18    10    14 1   
    19    10    28 1   
    20    11    12 1   
    21    11    16 1   
    22    11    29 1   
    23    12    13 1   
    24    12    30 1   
    25    12    31 1   
    26    13    32 1   
    27    14    15 1   
    28    15    33 1   
    29    15    34 1   
    30    15    35 1   
    31    16    36 1   
    32    17    18 1   
    33    17    37 1   
    34    18    19 2   
    35    18    20 1   
    36    19    38 1   
    37    20    39 1   
    38    20    40 1   
    39    21    41 1   
    40    21    42 1   
    41    21    43 1   
    42    21    45 1   
    43    22    45 2   
    44    23    44 1   
    45    23    45 1   
@<TRIPOS>SUBSTRUCTURE
     1 LNV         1 TEMP              0 ****  ****    0 ROOT
