@<TRIPOS>MOLECULE
LNV
   45    45     1     0     0
SMALL
No Charge or Current Charge


@<TRIPOS>ATOM
      1 CAA         -0.2430    -2.2070    -0.1260 ce         1 LNV       0.040900
      2 CAB         -1.4970    -1.7430     0.1310 c2         1 LNV      -0.417200
      3 CAC         -1.7810    -0.3070     0.4970 c6         1 LNV       0.278700
      4 CAD         -0.6270     0.6180     0.0130 c6         1 LNV       0.055700
      5 CAE          0.7060    -0.0240     0.4890 c6         1 LNV       0.159300
      6 OAF          0.8630    -1.3630    -0.0500 os         1 LNV      -0.297100
      7 CAG          0.0510    -3.6660    -0.5050 c          1 LNV       0.725200
      8 OAH          1.2120    -4.0020    -0.7170 o          1 LNV      -0.695000
      9 OAI         -0.8830    -4.4580    -0.5830 o          1 LNV      -0.695000
     10 CAJ          1.9770     0.8080     0.1030 c3         1 LNV       0.155300
     11 CAK          3.3260     0.1820     0.5740 c3         1 LNV       0.146300
     12 CAL          4.5720     1.0080     0.1580 c3         1 LNV       0.125600
     13 OAM          5.7530     0.4450     0.7530 oh         1 LNV      -0.638000
     14 OAW          2.0130     0.9730    -1.3360 os         1 LNV      -0.429000
     15 CAX          2.1010     2.3320    -1.8020 c3         1 LNV       0.151900
     16 OAY          3.3470     0.0580     2.0120 oh         1 LNV      -0.678000
     17 NAZ         -3.0330     0.0670    -0.1540 nu         1 LNV      -0.902400
     18 CBA         -4.2360    -0.1390     0.3430 c2         1 LNV       0.807100
     19 NBB         -4.4910    -0.4940     1.5100 n2         1 LNV      -0.901100
     20 NBC         -5.0580     0.3900    -0.5200 nv         1 LNV      -1.074200
     21 CBE         -1.5920     4.3200     0.6060 c3         1 LNV      -0.182100
     22 OBF         -2.2850     2.7240    -1.0680 o          1 LNV      -0.617100
     23 NBG         -0.7960     2.0110     0.4980 ns         1 LNV      -0.490900
     24 HAB         -2.3580    -2.4090     0.0810 ha         1 LNV       0.216000
     25 HAC         -1.8580    -0.2170     1.5930 h1         1 LNV       0.070700
     26 HAD         -0.6200     0.6280    -1.0870 h1         1 LNV       0.103700
     27 HAE          0.6730    -0.1060     1.5850 h1         1 LNV       0.046700
     28 HAJ          1.8820     1.7870     0.5930 h1         1 LNV       0.015700
     29 HAK          3.4160    -0.8070     0.1010 h1         1 LNV       0.143700
     30 HAL          4.6650     1.0030    -0.9360 h1         1 LNV       0.011700
     31 HALA         4.4460     2.0500     0.4810 h1         1 LNV       0.011700
     32 HOAM         6.5210     0.9540     0.4080 ho         1 LNV       0.426000
     33 HAX          3.0070     2.8210    -1.4210 h1         1 LNV       0.021367
     34 HAXA         2.1350     2.3550    -2.8980 h1         1 LNV       0.021367
     35 HAXB         1.2290     2.9120    -1.4750 h1         1 LNV       0.021367
     36 HOAY         4.3080     0.0360     2.2360 ho         1 LNV       0.472000
     37 HNAZ        -3.0050     0.9630    -0.6320 hn         1 LNV       0.477000
     38 HNBB        -5.5030    -0.4130     1.6440 hn         1 LNV       0.359400
     39 HNBC        -4.7260     0.2310    -1.4600 hn         1 LNV       0.444000
     40 HNBA        -6.0190     0.1150    -0.3770 hn         1 LNV       0.444000
     41 HBE         -2.2510     5.0470     0.1160 hc         1 LNV       0.051700
     42 HBEA        -1.8490     4.1890     1.6630 hc         1 LNV       0.051700
     43 HBEB        -0.5590     4.6820     0.6610 hc         1 LNV       0.051700
     44 HNBG        -0.2920     2.3010     1.3280 hn         1 LNV       0.301500
     45 CBD         -1.6050     2.9600    -0.0800 c          1 LNV       0.606100
@<TRIPOS>BOND
     1     1     2 2   
     2     1     6 1   
     3     1     7 1   
     4     2     3 1   
     5     2    24 1   
     6     3     4 1   
     7     3    17 1   
     8     3    25 1   
     9     4     5 1   
    10     4    23 1   
    11     4    26 1   
    12     5     6 1   
    13     5    10 1   
    14     5    27 1   
    15     7     8 1   
    16     7     9 1   
    17    10    11 1   
    18    10    14 1   
    19    10    28 1   
    20    11    12 1   
    21    11    16 1   
    22    11    29 1   
    23    12    13 1   
    24    12    30 1   
    25    12    31 1   
    26    13    32 1   
    27    14    15 1   
    28    15    33 1   
    29    15    34 1   
    30    15    35 1   
    31    16    36 1   
    32    17    18 1   
    33    17    37 1   
    34    18    19 2   
    35    18    20 1   
    36    19    38 1   
    37    20    39 1   
    38    20    40 1   
    39    21    41 1   
    40    21    42 1   
    41    21    43 1   
    42    21    45 1   
    43    22    45 2   
    44    23    44 1   
    45    23    45 1   
@<TRIPOS>SUBSTRUCTURE
     1 LNV         1 TEMP              0 ****  ****    0 ROOT
