@<TRIPOS>MOLECULE
LNW
   32    33     1     0     0
SMALL
abcg2


@<TRIPOS>ATOM
      1 C1           1.9550     2.2040     1.1230 c3         1 LNW      -0.178100
      2 C2           1.2000     1.0570     0.5290 ca         1 LNW      -0.010800
      3 C3           1.8640    -0.0320    -0.0230 ca         1 LNW      -0.087000
      4 O1           2.7900     4.3710     0.6800 o          1 LNW      -0.743250
      5 O2           2.0170    -3.1920     1.0430 o          1 LNW      -0.743250
      6 O3           2.7140    -4.4410    -0.6670 o          1 LNW      -0.743250
      7 C11         -4.4900     1.1850    -0.2660 ca         1 LNW      -0.126000
      8 C12         -5.1940     0.0150    -0.0100 ca         1 LNW      -0.152000
      9 C13         -4.4970    -1.1580     0.2470 ca         1 LNW      -0.126000
     10 C14         -3.1100    -1.1620     0.2470 ca         1 LNW      -0.111500
     11 C15         -0.1910     1.0630     0.5100 ca         1 LNW      -0.110500
     12 C6           2.2360    -3.4050    -0.1620 c          1 LNW       0.721500
     13 C4           1.1770    -1.1090    -0.5780 ca         1 LNW      -0.010800
     14 C7          -0.2130    -1.0820    -0.5640 ca         1 LNW      -0.110500
     15 C8          -0.9120    -0.0020    -0.0240 cp         1 LNW      -0.087000
     16 C            2.1370     3.4280     0.1900 c          1 LNW       0.721500
     17 O            1.6290     3.3790    -0.9430 o          1 LNW      -0.743250
     18 C9          -2.3890     0.0060    -0.0120 cp         1 LNW       0.027000
     19 C10         -3.1030     1.1800    -0.2670 ca         1 LNW      -0.111500
     20 H1           1.4560     2.5500     2.0340 hc         1 LNW       0.025450
     21 H2           2.9480     1.8730     1.4420 hc         1 LNW       0.025450
     22 H3           2.9500    -0.0430    -0.0250 ha         1 LNW       0.105000
     23 H6          -5.0220     2.1040    -0.4740 ha         1 LNW       0.089000
     24 H7          -6.2760     0.0190    -0.0110 ha         1 LNW       0.082000
     25 H8          -5.0350    -2.0730     0.4600 ha         1 LNW       0.089000
     26 H9          -2.5810    -2.0810     0.4690 ha         1 LNW       0.127500
     27 H10         -0.7210     1.8990     0.9520 ha         1 LNW       0.090500
     28 H11          2.8540    -1.9360    -1.6050 hc         1 LNW       0.025450
     29 H12          1.3340    -2.6990    -1.9960 hc         1 LNW       0.025450
     30 H13         -0.7610    -1.9090    -1.0020 ha         1 LNW       0.090500
     31 H14         -2.5680     2.0950    -0.4880 ha         1 LNW       0.127500
     32 C5           1.9080    -2.2720    -1.1680 c3         1 LNW      -0.178100
@<TRIPOS>BOND
     1     1     2 1   
     2     1    16 1   
     3     1    20 1   
     4     1    21 1   
     5     2     3 ar  
     6     2    11 ar  
     7     3    13 ar  
     8     3    22 1   
     9     4    16 1   
    10     5    12 1   
    11     6    12 1   
    12     7     8 ar  
    13     7    19 ar  
    14     7    23 1   
    15     8     9 ar  
    16     8    24 1   
    17     9    10 ar  
    18     9    25 1   
    19    10    18 ar  
    20    10    26 1   
    21    11    15 ar  
    22    11    27 1   
    23    12    32 1   
    24    13    14 ar  
    25    13    32 1   
    26    14    15 ar  
    27    14    30 1   
    28    15    18 1   
    29    16    17 1   
    30    18    19 ar  
    31    19    31 1   
    32    28    32 1   
    33    29    32 1   
@<TRIPOS>SUBSTRUCTURE
     1 LNW         1 TEMP              0 ****  ****    0 ROOT
