@<TRIPOS>MOLECULE
LNW
   32    33     1     0     0
SMALL
No Charge or Current Charge


@<TRIPOS>ATOM
      1 C1           1.8870     2.2950     1.2710 c3         1 LNW      -0.178100
      2 C2           1.1740     1.1120     0.6190 ca         1 LNW      -0.010800
      3 C3           1.9150     0.0470     0.0750 ca         1 LNW      -0.087000
      4 O1           3.2120     3.2840    -0.4320 o          1 LNW      -0.743250
      5 O2           3.3130    -3.1300     0.6820 o          1 LNW      -0.743250
      6 O3           1.4940    -4.1360     0.1250 o          1 LNW      -0.743250
      7 C11         -4.5760     1.1070    -0.3130 ca         1 LNW      -0.126000
      8 C12         -5.2570    -0.1130    -0.1880 ca         1 LNW      -0.152000
      9 C13         -4.5330    -1.3020    -0.0110 ca         1 LNW      -0.126000
     10 C14         -3.1290    -1.2710     0.0390 ca         1 LNW      -0.111500
     11 C15         -0.2320     1.0740     0.5630 ca         1 LNW      -0.110500
     12 C6           2.3340    -3.2630    -0.0380 c          1 LNW       0.721500
     13 C4           1.2640    -1.0490    -0.5200 ca         1 LNW      -0.010800
     14 C7          -0.1430    -1.0730    -0.5670 ca         1 LNW      -0.110500
     15 C8          -0.9190    -0.0160    -0.0290 cp         1 LNW      -0.087000
     16 C            2.1770     3.3730     0.2130 c          1 LNW       0.721500
     17 O            1.3140     4.2070    -0.0140 o          1 LNW      -0.743250
     18 C9          -2.4170    -0.0500    -0.0840 cp         1 LNW       0.027000
     19 C10         -3.1720     1.1390    -0.2610 ca         1 LNW      -0.111500
     20 H1           1.2150     2.6930     2.0410 hc         1 LNW       0.025450
     21 H2           2.8270     1.9120     1.6870 hc         1 LNW       0.025450
     22 H3           3.0010     0.0720     0.1150 ha         1 LNW       0.105000
     23 H6          -5.1350     2.0300    -0.4540 ha         1 LNW       0.089000
     24 H7          -6.3440    -0.1380    -0.2280 ha         1 LNW       0.082000
     25 H8          -5.0590    -2.2490     0.0890 ha         1 LNW       0.089000
     26 H9          -2.5870    -2.2010     0.1900 ha         1 LNW       0.127500
     27 H10         -0.7990     1.8940     0.9950 ha         1 LNW       0.090500
     28 H11          3.0260    -1.7720    -1.4620 hc         1 LNW       0.025450
     29 H12          1.4810    -2.6230    -1.9330 hc         1 LNW       0.025450
     30 H13         -0.6390    -1.9170    -1.0380 ha         1 LNW       0.090500
     31 H14         -2.6620     2.0920    -0.3740 ha         1 LNW       0.127500
     32 C5           2.0760    -2.1970    -1.1160 c3         1 LNW      -0.178100
@<TRIPOS>BOND
     1     1     2 1   
     2     1    16 1   
     3     1    20 1   
     4     1    21 1   
     5     2     3 ar  
     6     2    11 ar  
     7     3    13 ar  
     8     3    22 1   
     9     4    16 1   
    10     5    12 1   
    11     6    12 1   
    12     7     8 ar  
    13     7    19 ar  
    14     7    23 1   
    15     8     9 ar  
    16     8    24 1   
    17     9    10 ar  
    18     9    25 1   
    19    10    18 ar  
    20    10    26 1   
    21    11    15 ar  
    22    11    27 1   
    23    12    32 1   
    24    13    14 ar  
    25    13    32 1   
    26    14    15 ar  
    27    14    30 1   
    28    15    18 1   
    29    16    17 1   
    30    18    19 ar  
    31    19    31 1   
    32    28    32 1   
    33    29    32 1   
@<TRIPOS>SUBSTRUCTURE
     1 LNW         1 TEMP              0 ****  ****    0 ROOT
