@<TRIPOS>MOLECULE
LNX
   29    30     1     0     0
SMALL
bcc


@<TRIPOS>ATOM
      1 C1           2.1370     2.3230     1.0840 c3         1 LNX      -0.178600
      2 C2           1.2350     1.1500     0.8610 ca         1 LNX      -0.012300
      3 C3           1.7140    -0.1530     0.9610 ca         1 LNX      -0.114000
      4 O1           3.3950     3.9850    -0.0340 o          1 LNX      -0.839300
      5 O2           1.4100    -2.7840    -1.5120 o          1 LNX      -0.839300
      6 O3           2.5540    -4.3160    -0.3660 o          1 LNX      -0.839300
      7 C11         -4.3700     1.4700    -0.6340 cc         1 LNX      -0.143000
      8 C12         -4.8490     0.2990    -0.1330 cd         1 LNX      -0.174100
      9 C13         -0.1090     1.3410     0.5690 ca         1 LNX      -0.120000
     10 C            2.7050     2.9600    -0.2090 c          1 LNX       0.932600
     11 O            2.4410     2.4110    -1.2910 o          1 LNX      -0.839300
     12 C8          -0.9650     0.2560     0.3690 ca         1 LNX      -0.067000
     13 C7          -0.4490    -1.0370     0.4630 ca         1 LNX      -0.120000
     14 C4           0.8890    -1.2570     0.7680 ca         1 LNX      -0.012300
     15 C5           1.4310    -2.6470     0.8800 c3         1 LNX      -0.178600
     16 C6           1.8400    -3.2980    -0.4660 c          1 LNX       0.932600
     17 C9          -2.3790     0.4890     0.0720 cd         1 LNX       0.093900
     18 C10         -2.9590     1.5800    -0.5170 cc         1 LNX      -0.198000
     19 S           -3.5860    -0.6770     0.4890 ss         1 LNX      -0.135800
     20 H1           1.6080     3.1010     1.6430 hc         1 LNX       0.018950
     21 H2           2.9820     2.0300     1.7150 hc         1 LNX       0.018950
     22 H3           2.7590    -0.3120     1.2080 ha         1 LNX       0.122000
     23 H6          -4.9970     2.2300    -1.0770 ha         1 LNX       0.124000
     24 H7          -5.8710    -0.0430    -0.0940 h4         1 LNX       0.139000
     25 H8          -0.5030     2.3500     0.5240 ha         1 LNX       0.113500
     26 H9          -1.0960    -1.8920     0.3020 ha         1 LNX       0.113500
     27 H10          2.2880    -2.6650     1.5580 hc         1 LNX       0.018950
     28 H11          0.6780    -3.3010     1.3330 hc         1 LNX       0.018950
     29 H12         -2.3950     2.4290    -0.8740 ha         1 LNX       0.161000
@<TRIPOS>BOND
     1     1     2 1   
     2     1    10 1   
     3     1    20 1   
     4     1    21 1   
     5     2     3 ar  
     6     2     9 ar  
     7     3    14 ar  
     8     3    22 1   
     9     4    10 1   
    10     5    16 1   
    11     6    16 1   
    12     7     8 2   
    13     7    18 1   
    14     7    23 1   
    15     8    19 1   
    16     8    24 1   
    17     9    12 ar  
    18     9    25 1   
    19    10    11 1   
    20    12    13 ar  
    21    12    17 1   
    22    13    14 ar  
    23    13    26 1   
    24    14    15 1   
    25    15    16 1   
    26    15    27 1   
    27    15    28 1   
    28    17    18 2   
    29    17    19 1   
    30    18    29 1   
@<TRIPOS>SUBSTRUCTURE
     1 LNX         1 TEMP              0 ****  ****    0 ROOT
