@<TRIPOS>MOLECULE
LNX
   29    30     1     0     0
SMALL
No Charge or Current Charge


@<TRIPOS>ATOM
      1 C1           2.2630     2.2550     1.0810 c3         1 LNX      -0.178600
      2 C2           1.2940     1.0950     0.8660 ca         1 LNX      -0.012300
      3 C3           1.7420    -0.2340     0.9750 ca         1 LNX      -0.096000
      4 O1           2.2540     3.5120    -0.9340 o          1 LNX      -0.734000
      5 O2           0.8670    -3.7990    -1.1560 o          1 LNX      -0.734000
      6 O3           2.8780    -3.0930    -0.8530 o          1 LNX      -0.734000
      7 C11         -4.3790     1.7230    -0.3930 cc         1 LNX      -0.125000
      8 C12         -4.8650     0.4480    -0.4880 cd         1 LNX      -0.301000
      9 C13         -0.0580     1.3460     0.5650 ca         1 LNX      -0.102000
     10 C            2.8640     2.6890    -0.2680 c          1 LNX       0.722000
     11 O            3.8680     2.1140    -0.6630 o          1 LNX      -0.734000
     12 C8          -0.9730     0.2870     0.3710 ca         1 LNX      -0.067000
     13 C7          -0.4990    -1.0390     0.4880 ca         1 LNX      -0.102000
     14 C4           0.8510    -1.3050     0.7890 ca         1 LNX      -0.012300
     15 C5           1.3380    -2.7470     0.9200 c3         1 LNX      -0.178600
     16 C6           1.7360    -3.2890    -0.4630 c          1 LNX       0.722000
     17 C9          -2.3950     0.5590     0.0540 cd         1 LNX      -0.051000
     18 C10         -2.9970     1.7880    -0.0900 cc         1 LNX      -0.180000
     19 S           -3.5840    -0.7440    -0.1960 ss         1 LNX       0.154000
     20 H1           1.6850     3.0780     1.5190 hc         1 LNX       0.018950
     21 H2           3.0550     1.8940     1.7490 hc         1 LNX       0.018950
     22 H3           2.7860    -0.4340     1.2050 ha         1 LNX       0.104000
     23 H6          -4.9840     2.6150    -0.5350 ha         1 LNX       0.106000
     24 H7          -5.8760     0.1260    -0.7070 h4         1 LNX       0.121000
     25 H8          -0.3860     2.3770     0.4820 ha         1 LNX       0.095500
     26 H9          -1.1710    -1.8790     0.3470 ha         1 LNX       0.095500
     27 H10          2.2100    -2.7330     1.5860 hc         1 LNX       0.018950
     28 H11          0.5040    -3.3300     1.3300 hc         1 LNX       0.018950
     29 H12         -2.4900     2.7410     0.0130 ha         1 LNX       0.143000
@<TRIPOS>BOND
     1     1     2 1   
     2     1    10 1   
     3     1    20 1   
     4     1    21 1   
     5     2     3 ar  
     6     2     9 ar  
     7     3    14 ar  
     8     3    22 1   
     9     4    10 1   
    10     5    16 1   
    11     6    16 1   
    12     7     8 2   
    13     7    18 1   
    14     7    23 1   
    15     8    19 1   
    16     8    24 1   
    17     9    12 ar  
    18     9    25 1   
    19    10    11 1   
    20    12    13 ar  
    21    12    17 1   
    22    13    14 ar  
    23    13    26 1   
    24    14    15 1   
    25    15    16 1   
    26    15    27 1   
    27    15    28 1   
    28    17    18 2   
    29    17    19 1   
    30    18    29 1   
@<TRIPOS>SUBSTRUCTURE
     1 LNX         1 TEMP              0 ****  ****    0 ROOT
