@<TRIPOS>MOLECULE
LNY
   35    36     1     0     0
SMALL
No Charge or Current Charge


@<TRIPOS>ATOM
      1 C1           3.8210     2.1570     0.9790 c3         1 LNY      -0.179600
      2 C2           2.7680     1.0590     0.8430 ca         1 LNY      -0.014300
      3 C3           3.1490    -0.2950     0.8540 ca         1 LNY      -0.081000
      4 O1           5.2390     1.9550    -0.9140 o          1 LNY      -0.732500
      5 O2           3.9110    -3.1280    -1.1820 o          1 LNY      -0.732500
      6 O3           1.8420    -3.7130    -1.2840 o          1 LNY      -0.732500
      7 C11         -2.9660     2.0470     0.2810 cc         1 LNY      -0.085000
      8 C12         -3.5220     0.8010     0.1900 cd         1 LNY      -0.202000
      9 C13         -4.8850     0.4470     0.0350 ch         1 LNY       0.000000
     10 C14         -6.0560     0.1480    -0.0830 c1         1 LNY      -0.218100
     11 C15         -7.4730    -0.2000    -0.2110 c3         1 LNY       0.269700
     12 C16          1.4070     1.3940     0.7120 ca         1 LNY      -0.100500
     13 O            3.6930     3.4500    -1.0090 o          1 LNY      -0.732500
     14 C            4.3150     2.5800    -0.4160 c          1 LNY       0.724000
     15 C8           0.4160     0.3940     0.5930 ca         1 LNY      -0.077000
     16 C7           0.8240    -0.9590     0.6100 ca         1 LNY      -0.100500
     17 C4           2.1810    -1.3090     0.7400 ca         1 LNY      -0.014300
     18 C5           2.5970    -2.7780     0.7640 c3         1 LNY      -0.179600
     19 C6           2.8100    -3.2820    -0.6750 c          1 LNY       0.724000
     20 C9          -1.0150     0.7540     0.4540 cd         1 LNY      -0.051000
     21 C10         -1.5570     2.0210     0.4290 cc         1 LNY      -0.199000
     22 S           -2.2980    -0.4770     0.2860 ss         1 LNY       0.267000
     23 O4          -7.6400    -1.1960    -1.2210 oh         1 LNY      -0.644000
     24 H1           3.3390     3.0040     1.4820 hc         1 LNY       0.018950
     25 H2           4.6500     1.7360     1.5610 hc         1 LNY       0.018950
     26 H3           4.1990    -0.5590     0.9510 ha         1 LNY       0.111000
     27 H5          -3.5320     2.9740     0.2450 ha         1 LNY       0.113000
     28 H6          -7.8380    -0.5680     0.7570 h1         1 LNY       0.019700
     29 H7          -8.0400     0.7060    -0.4670 h1         1 LNY       0.019700
     30 H8           1.1310     2.4430     0.7020 ha         1 LNY       0.095500
     31 H10          0.0930    -1.7570     0.5210 ha         1 LNY       0.095500
     32 H11          3.5360    -2.8390     1.3280 hc         1 LNY       0.018950
     33 H12          1.7810    -3.3340     1.2420 hc         1 LNY       0.018950
     34 H13         -0.9860     2.9390     0.5130 ha         1 LNY       0.133000
     35 H14         -8.6020    -1.3870    -1.2610 ho         1 LNY       0.427000
@<TRIPOS>BOND
     1     1     2 1   
     2     1    14 1   
     3     1    24 1   
     4     1    25 1   
     5     2     3 ar  
     6     2    12 ar  
     7     3    17 ar  
     8     3    26 1   
     9     4    14 1   
    10     5    19 1   
    11     6    19 1   
    12     7     8 2   
    13     7    21 1   
    14     7    27 1   
    15     8     9 1   
    16     8    22 1   
    17     9    10 3   
    18    10    11 1   
    19    11    23 1   
    20    11    28 1   
    21    11    29 1   
    22    12    15 ar  
    23    12    30 1   
    24    13    14 1   
    25    15    16 ar  
    26    15    20 1   
    27    16    17 ar  
    28    16    31 1   
    29    17    18 1   
    30    18    19 1   
    31    18    32 1   
    32    18    33 1   
    33    20    21 2   
    34    20    22 1   
    35    21    34 1   
    36    23    35 1   
@<TRIPOS>SUBSTRUCTURE
     1 LNY         1 TEMP              0 ****  ****    0 ROOT
