@<TRIPOS>MOLECULE
LNY
   35    36     1     0     0
SMALL
bcc


@<TRIPOS>ATOM
      1 C1           3.6940     2.3080     0.5780 c3         1 LNY      -0.179600
      2 C2           2.6930     1.1980     0.6240 ca         1 LNY      -0.014300
      3 C3           3.1070    -0.1270     0.7490 ca         1 LNY      -0.099000
      4 O1           4.0010     1.8060    -1.7450 o          1 LNY      -0.837800
      5 O2           3.5630    -4.3200    -0.4200 o          1 LNY      -0.837800
      6 O3           1.9320    -3.0610    -1.2710 o          1 LNY      -0.837800
      7 C11         -3.0530     1.8630     0.7730 cc         1 LNY      -0.103000
      8 C12         -3.5030     0.6630     0.2860 cd         1 LNY      -0.057100
      9 C13         -4.8240     0.2580     0.0290 ch         1 LNY       0.000000
     10 C14         -5.9570    -0.0920    -0.1910 c1         1 LNY      -0.218100
     11 C15         -7.3270    -0.5350    -0.4080 c3         1 LNY       0.246500
     12 C16          1.3330     1.4560     0.5440 ca         1 LNY      -0.118500
     13 O            5.1650     3.4850    -0.8480 o          1 LNY      -0.837800
     14 C            4.3420     2.5490    -0.8110 c          1 LNY       0.934600
     15 C8           0.3970     0.4190     0.6000 ca         1 LNY      -0.077000
     16 C7           0.8460    -0.8920     0.7200 ca         1 LNY      -0.118500
     17 C4           2.2040    -1.1810     0.7990 ca         1 LNY      -0.014300
     18 C5           2.6830    -2.5900     0.9460 c3         1 LNY      -0.179600
     19 C6           2.7340    -3.3890    -0.3790 c          1 LNY       0.934600
     20 C9          -1.0300     0.7330     0.5580 cd         1 LNY       0.093900
     21 C10         -1.6520     1.9000     0.9250 cc         1 LNY      -0.217000
     22 S           -2.1880    -0.4200     0.0110 ss         1 LNY      -0.022800
     23 O4          -7.7560    -0.1350    -1.6870 oh         1 LNY      -0.581800
     24 H1           3.2350     3.2450     0.9080 hc         1 LNY       0.018950
     25 H2           4.4990     2.1110     1.2930 hc         1 LNY       0.018950
     26 H3           4.1690    -0.3390     0.8240 ha         1 LNY       0.129000
     27 H5          -3.7140     2.6800     1.0220 ha         1 LNY       0.131000
     28 H6          -7.3600    -1.6250    -0.2810 h1         1 LNY       0.019700
     29 H7          -7.9550    -0.1140     0.3880 h1         1 LNY       0.019700
     30 H8           0.9950     2.4790     0.4290 ha         1 LNY       0.113500
     31 H10          0.1350    -1.7060     0.8000 ha         1 LNY       0.113500
     32 H11          3.6660    -2.6060     1.4210 hc         1 LNY       0.018950
     33 H12          2.0130    -3.1350     1.6200 hc         1 LNY       0.018950
     34 H13         -1.1220     2.7530     1.3210 ha         1 LNY       0.151000
     35 H14         -8.6710    -0.4120    -1.7800 ho         1 LNY       0.388000
@<TRIPOS>BOND
     1     1     2 1   
     2     1    14 1   
     3     1    24 1   
     4     1    25 1   
     5     2     3 ar  
     6     2    12 ar  
     7     3    17 ar  
     8     3    26 1   
     9     4    14 1   
    10     5    19 1   
    11     6    19 1   
    12     7     8 2   
    13     7    21 1   
    14     7    27 1   
    15     8     9 1   
    16     8    22 1   
    17     9    10 3   
    18    10    11 1   
    19    11    23 1   
    20    11    28 1   
    21    11    29 1   
    22    12    15 ar  
    23    12    30 1   
    24    13    14 1   
    25    15    16 ar  
    26    15    20 1   
    27    16    17 ar  
    28    16    31 1   
    29    17    18 1   
    30    18    19 1   
    31    18    32 1   
    32    18    33 1   
    33    20    21 2   
    34    20    22 1   
    35    21    34 1   
    36    23    35 1   
@<TRIPOS>SUBSTRUCTURE
     1 LNY         1 TEMP              0 ****  ****    0 ROOT
