@<TRIPOS>MOLECULE
LNZ
   42    43     1     0     0
SMALL
bcc


@<TRIPOS>ATOM
      1 C1          -0.8680    -0.1910    -0.1370 ca         1 LNZ      -0.048000
      2 C2          -2.0710    -0.8830    -0.0700 ca         1 LNZ      -0.203600
      3 C3          -2.0730    -2.2600     0.1970 ca         1 LNZ       0.026700
      4 C11          1.5970    -0.0270    -0.0590 cc         1 LNZ      -0.011100
      5 C15          3.9310     0.8050    -0.3180 cc         1 LNZ       0.027900
      6 C16          3.0060     1.8180    -0.2890 cd         1 LNZ      -0.122000
      7 C17          1.6900     1.3440    -0.1420 cd         1 LNZ      -0.157000
      8 C18          5.3300     0.9010    -0.4490 cg         1 LNZ      -0.076000
      9 C21         -6.0800     1.4690     0.6360 c3         1 LNZ      -0.250300
     10 C23          6.5290     0.9690    -0.5610 c1         1 LNZ      -0.120100
     11 C24          7.9750     1.0520    -0.7190 c3         1 LNZ       0.230500
     12 C4          -0.8490    -2.8820     0.3970 ca         1 LNZ      -0.232000
     13 C5           0.3540    -2.1870     0.3170 ca         1 LNZ       0.180100
     14 C6           0.3660    -0.8070     0.0430 ca         1 LNZ      -0.047000
     15 C7          -3.3350    -0.1570    -0.3450 c          1 LNZ       0.722700
     16 C8          -3.3240    -3.0830     0.2960 c3         1 LNZ      -0.055800
     17 O9           1.5460    -2.7600     0.4870 os         1 LNZ      -0.319900
     18 C10          1.6380    -4.1550     0.7300 c3         1 LNZ       0.126700
     19 O12         -4.2440    -0.6070    -1.0070 o          1 LNZ      -0.556100
     20 N13         -3.4070     1.0960     0.2210 ns         1 LNZ      -0.656300
     21 S14          3.1720    -0.7350    -0.1490 ss         1 LNZ       0.010200
     22 S19         -4.6390     2.1970    -0.0930 s6         1 LNZ       1.247600
     23 O20         -4.8220     2.2950    -1.5270 o          1 LNZ      -0.593800
     24 O22         -4.2640     3.3770     0.6640 o          1 LNZ      -0.593800
     25 O25          8.5820     1.0880     0.5520 oh         1 LNZ      -0.584800
     26 H1          -0.8880     0.8620    -0.3850 ha         1 LNZ       0.143000
     27 H2           3.2680     2.8630    -0.3660 ha         1 LNZ       0.159000
     28 H3           0.8390     2.0070    -0.0940 ha         1 LNZ       0.149000
     29 H4          -5.8910     1.2920     1.6920 h1         1 LNZ       0.109033
     30 H5          -6.8910     2.1850     0.5130 h1         1 LNZ       0.109033
     31 H6          -6.3200     0.5430     0.1230 h1         1 LNZ       0.109033
     32 H7           8.3080     0.1890    -1.3100 h1         1 LNZ       0.036200
     33 H8           8.2080     1.9440    -1.3130 h1         1 LNZ       0.036200
     34 H9          -0.8450    -3.9400     0.6220 ha         1 LNZ       0.141000
     35 H10         -3.7560    -3.2650    -0.6880 hc         1 LNZ       0.054033
     36 H11         -3.1040    -4.0490     0.7470 hc         1 LNZ       0.054033
     37 H12         -4.0890    -2.5990     0.9010 hc         1 LNZ       0.054033
     38 H13          1.1370    -4.4340     1.6580 h1         1 LNZ       0.048033
     39 H14          1.2180    -4.7340    -0.0960 h1         1 LNZ       0.048033
     40 H15          2.6980    -4.3770     0.8170 h1         1 LNZ       0.048033
     41 H16         -2.7370     1.3840     0.9240 hn         1 LNZ       0.350500
     42 H17          9.5350     1.1230     0.4150 ho         1 LNZ       0.407000
@<TRIPOS>BOND
     1     1     2 ar  
     2     1    14 ar  
     3     1    26 1   
     4     2     3 ar  
     5     2    15 1   
     6     3    12 ar  
     7     3    16 1   
     8     4     7 2   
     9     4    14 1   
    10     4    21 1   
    11     5     6 2   
    12     5     8 1   
    13     5    21 1   
    14     6     7 1   
    15     6    27 1   
    16     7    28 1   
    17     8    10 3   
    18     9    22 1   
    19     9    29 1   
    20     9    30 1   
    21     9    31 1   
    22    10    11 1   
    23    11    25 1   
    24    11    32 1   
    25    11    33 1   
    26    12    13 ar  
    27    12    34 1   
    28    13    14 ar  
    29    13    17 1   
    30    15    19 2   
    31    15    20 1   
    32    16    35 1   
    33    16    36 1   
    34    16    37 1   
    35    17    18 1   
    36    18    38 1   
    37    18    39 1   
    38    18    40 1   
    39    20    22 1   
    40    20    41 1   
    41    22    23 2   
    42    22    24 2   
    43    25    42 1   
@<TRIPOS>SUBSTRUCTURE
     1 LNZ         1 TEMP              0 ****  ****    0 ROOT
