@<TRIPOS>MOLECULE
LNZ
   42    43     1     0     0
SMALL
No Charge or Current Charge


@<TRIPOS>ATOM
      1 C1          -0.8540    -0.3050    -0.1580 ca         1 LNZ      -0.030000
      2 C2          -2.0950    -0.9880    -0.1750 ca         1 LNZ      -0.203600
      3 C3          -2.1070    -2.3770     0.1270 ca         1 LNZ       0.026700
      4 C11          1.6080    -0.2030     0.1360 cc         1 LNZ      -0.156000
      5 C15          3.8840     0.8020    -0.0820 cc         1 LNZ      -0.117000
      6 C16          2.9910     1.6180     0.5720 cd         1 LNZ      -0.104000
      7 C17          1.6930     1.0480     0.6970 cd         1 LNZ      -0.139000
      8 C18          5.2460     1.0980    -0.3530 cg         1 LNZ      -0.076000
      9 C21         -5.8110     1.8700     0.5670 c3         1 LNZ      -0.361100
     10 C23          6.4190     1.3220    -0.5790 c1         1 LNZ      -0.120100
     11 C24          7.8260     1.6400    -0.8420 c3         1 LNZ       0.253700
     12 C4          -0.9010    -3.0340     0.4340 ca         1 LNZ      -0.214000
     13 C5           0.3280    -2.3420     0.4490 ca         1 LNZ       0.180100
     14 C6           0.3520    -0.9630     0.1510 ca         1 LNZ      -0.047000
     15 C7          -3.3580    -0.2270    -0.5330 c          1 LNZ       0.655700
     16 C8          -3.3940    -3.1990     0.1740 c3         1 LNZ      -0.055800
     17 O9           1.5140    -2.9800     0.7690 os         1 LNZ      -0.343100
     18 C10          1.5830    -4.3800     1.0930 c3         1 LNZ       0.149900
     19 O12         -4.3140    -0.7490    -1.0840 o          1 LNZ      -0.556100
     20 N13         -3.3440     1.0980    -0.2320 ns         1 LNZ      -0.589300
     21 S14          3.1410    -0.7220    -0.5690 ss         1 LNZ       0.300000
     22 S19         -4.5010     2.2460    -0.5840 s6         1 LNZ       1.216800
     23 O20         -5.0000     2.0130    -1.9430 o          1 LNZ      -0.523000
     24 O22         -3.9350     3.5480    -0.2200 o          1 LNZ      -0.523000
     25 O25          8.5600     0.4450    -1.1320 oh         1 LNZ      -0.647000
     26 H1          -0.8050     0.7480    -0.4260 ha         1 LNZ       0.125000
     27 H2           3.2510     2.6000     0.9560 ha         1 LNZ       0.141000
     28 H3           0.8680     1.5510     1.1920 ha         1 LNZ       0.131000
     29 H4          -5.3950     1.9440     1.5770 h1         1 LNZ       0.109033
     30 H5          -6.6070     2.6050     0.4090 h1         1 LNZ       0.109033
     31 H6          -6.1590     0.8550     0.3510 h1         1 LNZ       0.109033
     32 H7           7.8780     2.3380    -1.6880 h1         1 LNZ       0.036200
     33 H8           8.2450     2.1450     0.0390 h1         1 LNZ       0.036200
     34 H9          -0.9360    -4.0930     0.6670 ha         1 LNZ       0.123000
     35 H10         -3.7890    -3.3710    -0.8340 hc         1 LNZ       0.054033
     36 H11         -3.2360    -4.1830     0.6310 hc         1 LNZ       0.054033
     37 H12         -4.1680    -2.6960     0.7660 hc         1 LNZ       0.054033
     38 H13          0.9770    -4.6060     1.9800 h1         1 LNZ       0.048033
     39 H14          1.2280    -4.9930     0.2550 h1         1 LNZ       0.048033
     40 H15          2.6200    -4.6680     1.3090 h1         1 LNZ       0.048033
     41 H16         -2.5630     1.4920     0.2620 hn         1 LNZ       0.350500
     42 H17          9.4890     0.7220    -1.2960 ho         1 LNZ       0.446000
@<TRIPOS>BOND
     1     1     2 ar  
     2     1    14 ar  
     3     1    26 1   
     4     2     3 ar  
     5     2    15 1   
     6     3    12 ar  
     7     3    16 1   
     8     4     7 2   
     9     4    14 1   
    10     4    21 1   
    11     5     6 2   
    12     5     8 1   
    13     5    21 1   
    14     6     7 1   
    15     6    27 1   
    16     7    28 1   
    17     8    10 3   
    18     9    22 1   
    19     9    29 1   
    20     9    30 1   
    21     9    31 1   
    22    10    11 1   
    23    11    25 1   
    24    11    32 1   
    25    11    33 1   
    26    12    13 ar  
    27    12    34 1   
    28    13    14 ar  
    29    13    17 1   
    30    15    19 2   
    31    15    20 1   
    32    16    35 1   
    33    16    36 1   
    34    16    37 1   
    35    17    18 1   
    36    18    38 1   
    37    18    39 1   
    38    18    40 1   
    39    20    22 1   
    40    20    41 1   
    41    22    23 2   
    42    22    24 2   
    43    25    42 1   
@<TRIPOS>SUBSTRUCTURE
     1 LNZ         1 TEMP              0 ****  ****    0 ROOT
