@<TRIPOS>MOLECULE
LO0
   37    38     1     0     0
SMALL
abcg2


@<TRIPOS>ATOM
      1 N1           5.4140     1.5290    17.8640 ne         1 LO0      -0.630100
      2 C4          13.7140    -1.9370    21.7650 ca         1 LO0      -0.108000
      3 C5          12.3470    -2.1010    21.9870 ca         1 LO0      -0.167000
      4 C6          11.5640    -1.0210    22.3570 ca         1 LO0       0.110100
      5 C7           9.5540    -2.2980    22.4510 c3         1 LO0       0.138600
      6 C8           8.0860    -2.0170    22.6980 c3         1 LO0       0.099000
      7 C10          6.2550    -0.4090    19.8030 ce         1 LO0      -0.129400
      8 C13          6.6620     1.7000    18.4650 c          1 LO0       0.691500
      9 N            7.5370    -1.1110    21.7150 ns         1 LO0      -0.495900
     10 C1          12.1560     0.2500    22.5130 ca         1 LO0       0.110100
     11 C11          5.1700    -0.5910    19.0450 cf         1 LO0      -0.288600
     12 O1          10.2390    -1.0700    22.5970 os         1 LO0      -0.343100
     13 O3           7.4200     2.5370    18.0380 o          1 LO0      -0.487100
     14 C2          13.5150     0.4010    22.2910 ca         1 LO0      -0.167000
     15 C9           6.6590    -1.4830    20.7720 c          1 LO0       0.606300
     16 C12          4.7550     0.4630    18.1390 cf         1 LO0       0.528500
     17 C14          7.0230     0.8620    19.6700 c6         1 LO0      -0.185200
     18 C           11.8410     2.5390    23.0240 c3         1 LO0       0.144900
     19 O           11.3150     1.2380    22.8760 os         1 LO0      -0.330100
     20 O2           6.1920    -2.6080    20.6800 o          1 LO0      -0.596100
     21 C3          14.2940    -0.6940    21.9160 ca         1 LO0      -0.106000
     22 H1          14.3110    -2.7910    21.4740 ha         1 LO0       0.116000
     23 H2          11.9090    -3.0830    21.8660 ha         1 LO0       0.118000
     24 H3           9.9130    -3.0360    23.1770 h1         1 LO0       0.045700
     25 H4           9.6940    -2.7110    21.4470 h1         1 LO0       0.045700
     26 H5           7.9480    -1.5960    23.6950 h1         1 LO0       0.072700
     27 H6           7.5360    -2.9540    22.6620 h1         1 LO0       0.072700
     28 H7           7.8660    -0.1590    21.7480 hn         1 LO0       0.331500
     29 H8           4.5640    -1.4840    19.1070 ha         1 LO0       0.221000
     30 H9          13.9870     1.3670    22.4070 ha         1 LO0       0.120000
     31 H10          3.7950     0.3420    17.6450 h4         1 LO0       0.032800
     32 H11          8.1010     0.6820    19.6520 hc         1 LO0       0.095200
     33 H12          6.8440     1.4890    20.5560 hc         1 LO0       0.095200
     34 H13         11.0050     3.1810    23.2940 h1         1 LO0       0.040367
     35 H14         12.5920     2.5910    23.8170 h1         1 LO0       0.040367
     36 H15         12.2840     2.9110    22.0960 h1         1 LO0       0.040367
     37 H16         15.3540    -0.5570    21.7470 ha         1 LO0       0.116000
@<TRIPOS>BOND
     1     1     8 1   
     2     1    16 2   
     3     2     3 ar  
     4     2    21 ar  
     5     2    22 1   
     6     3     4 ar  
     7     3    23 1   
     8     4    10 ar  
     9     4    12 1   
    10     5     6 1   
    11     5    12 1   
    12     5    24 1   
    13     5    25 1   
    14     6     9 1   
    15     6    26 1   
    16     6    27 1   
    17     7    11 2   
    18     7    15 1   
    19     7    17 1   
    20     8    13 2   
    21     8    17 1   
    22     9    15 1   
    23     9    28 1   
    24    10    14 ar  
    25    10    19 1   
    26    11    16 1   
    27    11    29 1   
    28    14    21 ar  
    29    14    30 1   
    30    15    20 2   
    31    16    31 1   
    32    17    32 1   
    33    17    33 1   
    34    18    19 1   
    35    18    34 1   
    36    18    35 1   
    37    18    36 1   
    38    21    37 1   
@<TRIPOS>SUBSTRUCTURE
     1 LO0         1 TEMP              0 ****  ****    0 ROOT
