@<TRIPOS>MOLECULE
LO0
   37    38     1     0     0
SMALL
No Charge or Current Charge


@<TRIPOS>ATOM
      1 N1           5.5050     1.7380    18.1890 ne         1 LO0      -0.630100
      2 C4          13.6340    -2.1280    21.7480 ca         1 LO0      -0.108000
      3 C5          12.2660    -2.2330    22.0520 ca         1 LO0      -0.167000
      4 C6          11.5040    -1.0700    22.3110 ca         1 LO0       0.110100
      5 C7           9.4250    -2.3780    22.6370 c3         1 LO0       0.138600
      6 C8           7.9500    -2.0630    22.9740 c3         1 LO0       0.099000
      7 C10          6.4100    -0.3780    19.8690 ce         1 LO0      -0.129400
      8 C13          6.3990     2.0400    19.2030 c          1 LO0       0.691500
      9 N            7.3200    -1.1510    22.0070 ns         1 LO0      -0.495900
     10 C1          12.1270     0.2020    22.2620 ca         1 LO0       0.110100
     11 C11          5.9210    -0.5670    18.6010 cf         1 LO0      -0.288600
     12 O1          10.1540    -1.1360    22.6120 os         1 LO0      -0.343100
     13 O3           7.2850     2.8700    19.0720 o          1 LO0      -0.487100
     14 C2          13.5050     0.2940    21.9550 ca         1 LO0      -0.167000
     15 C9           6.9470    -1.4990    20.7280 c          1 LO0       0.606300
     16 C12          5.4110     0.5130    17.7590 cf         1 LO0       0.528500
     17 C14          6.3750     1.0760    20.3940 c6         1 LO0      -0.185200
     18 C           11.9040     2.6590    22.4800 c3         1 LO0       0.144900
     19 O           11.3590     1.3280    22.5170 os         1 LO0      -0.330100
     20 O2           7.0370    -2.6510    20.3260 o          1 LO0      -0.596100
     21 C3          14.2510    -0.8680    21.7000 ca         1 LO0      -0.106000
     22 H1          14.2170    -3.0250    21.5500 ha         1 LO0       0.116000
     23 H2          11.8180    -3.2210    22.0820 ha         1 LO0       0.118000
     24 H3           9.8320    -3.0530    23.4010 h1         1 LO0       0.045700
     25 H4           9.4780    -2.8810    21.6630 h1         1 LO0       0.045700
     26 H5           7.8990    -1.6110    23.9730 h1         1 LO0       0.072700
     27 H6           7.3800    -3.0020    23.0050 h1         1 LO0       0.072700
     28 H7           7.2080    -0.1790    22.2650 hn         1 LO0       0.331500
     29 H8           5.8960    -1.5670    18.1670 ha         1 LO0       0.221000
     30 H9          14.0110     1.2540    21.9100 ha         1 LO0       0.120000
     31 H10          4.9430     0.2710    16.8000 h4         1 LO0       0.032800
     32 H11          7.1960     1.3270    21.0770 hc         1 LO0       0.095200
     33 H12          5.4010     1.1960    20.8870 hc         1 LO0       0.095200
     34 H13         11.1230     3.3950    22.7100 h1         1 LO0       0.040367
     35 H14         12.7060     2.7730    23.2210 h1         1 LO0       0.040367
     36 H15         12.3060     2.8890    21.4860 h1         1 LO0       0.040367
     37 H16         15.3110    -0.7930    21.4650 ha         1 LO0       0.116000
@<TRIPOS>BOND
     1     1     8 1   
     2     1    16 2   
     3     2     3 ar  
     4     2    21 ar  
     5     2    22 1   
     6     3     4 ar  
     7     3    23 1   
     8     4    10 ar  
     9     4    12 1   
    10     5     6 1   
    11     5    12 1   
    12     5    24 1   
    13     5    25 1   
    14     6     9 1   
    15     6    26 1   
    16     6    27 1   
    17     7    11 2   
    18     7    15 1   
    19     7    17 1   
    20     8    13 2   
    21     8    17 1   
    22     9    15 1   
    23     9    28 1   
    24    10    14 ar  
    25    10    19 1   
    26    11    16 1   
    27    11    29 1   
    28    14    21 ar  
    29    14    30 1   
    30    15    20 2   
    31    16    31 1   
    32    17    32 1   
    33    17    33 1   
    34    18    19 1   
    35    18    34 1   
    36    18    35 1   
    37    18    36 1   
    38    21    37 1   
@<TRIPOS>SUBSTRUCTURE
     1 LO0         1 TEMP              0 ****  ****    0 ROOT
