@<TRIPOS>MOLECULE
LO1
   23    23     1     0     0
SMALL
abcg2


@<TRIPOS>ATOM
      1 C1          -0.2930    -0.0220    -3.6760 c          1 LO1       0.668000
      2 O1          -1.5220    -0.2200    -3.6760 o          1 LO1      -0.687000
      3 OXT          0.4800     0.0790    -4.6330 o          1 LO1      -0.687000
      4 C2           0.3690     0.1190    -2.2690 c          1 LO1       0.442100
      5 O2           1.5630     0.3090    -2.1230 o          1 LO1      -0.610100
      6 C7          -0.3600     0.0710     0.1130 ca         1 LO1       0.021000
      7 C8          -1.5050    -0.0540     0.9030 ca         1 LO1      -0.180000
      8 C3          -1.4200    -0.0110     2.2840 ca         1 LO1      -0.072000
      9 C4          -0.1980     0.1640     2.9280 ca         1 LO1      -0.164300
     10 C5           0.9370     0.2840     2.1340 ca         1 LO1      -0.072000
     11 C6           0.8720     0.2400     0.7480 ca         1 LO1      -0.180000
     12 C           -0.1280     0.2440     4.4320 c3         1 LO1       0.212100
     13 N1           1.0830    -0.3650     4.9550 n8         1 LO1      -0.995200
     14 N7          -0.5320     0.0060    -1.2680 ns         1 LO1      -0.147000
     15 H2          -2.4700    -0.1960     0.4310 ha         1 LO1       0.128500
     16 H3          -2.3250    -0.1220     2.8690 ha         1 LO1       0.101000
     17 H5           1.9030     0.4090     2.6060 ha         1 LO1       0.101000
     18 H6           1.7790     0.3360     0.1720 ha         1 LO1       0.128500
     19 HC1         -1.0540    -0.1800     4.8460 h1         1 LO1       0.019700
     20 HC2         -0.1240     1.2970     4.7310 h1         1 LO1       0.019700
     21 H1N1         1.1210    -0.2240     5.9560 hn         1 LO1       0.385500
     22 H1N2         1.0440    -1.3670     4.8150 hn         1 LO1       0.385500
     23 H7          -1.4750    -0.1460    -1.6060 hn         1 LO1       0.182000
@<TRIPOS>BOND
     1     1     2 1   
     2     1     3 1   
     3     1     4 1   
     4     4     5 2   
     5     4    14 1   
     6     6     7 ar  
     7     6    11 ar  
     8     6    14 1   
     9     7     8 ar  
    10     7    15 1   
    11     8     9 ar  
    12     8    16 1   
    13     9    10 ar  
    14     9    12 1   
    15    10    11 ar  
    16    10    17 1   
    17    11    18 1   
    18    12    13 1   
    19    12    19 1   
    20    12    20 1   
    21    13    21 1   
    22    13    22 1   
    23    14    23 1   
@<TRIPOS>SUBSTRUCTURE
     1 LO1         1 TEMP              0 ****  ****    0 ROOT
