@<TRIPOS>MOLECULE
LO1
   23    23     1     0     0
SMALL
No Charge or Current Charge


@<TRIPOS>ATOM
      1 C1          -0.3840    -0.1060    -3.7820 c          1 LO1       0.668000
      2 O1          -1.5430    -0.5170    -3.7610 o          1 LO1      -0.687000
      3 OXT          0.2410     0.0740    -4.8260 o          1 LO1      -0.687000
      4 C2           0.3490     0.2110    -2.3670 c          1 LO1       0.442100
      5 O2           1.5090     0.6280    -2.2800 o          1 LO1      -0.610100
      6 C7          -0.2840     0.0830     0.1310 ca         1 LO1       0.021000
      7 C8          -1.3650    -0.2520     0.9670 ca         1 LO1      -0.180000
      8 C3          -1.2520    -0.1570     2.3650 ca         1 LO1      -0.072000
      9 C4          -0.0480     0.2760     2.9510 ca         1 LO1      -0.164300
     10 C5           1.0370     0.6130     2.1210 ca         1 LO1      -0.072000
     11 C6           0.9220     0.5180     0.7220 ca         1 LO1      -0.180000
     12 C            0.0750     0.3900     4.4620 c3         1 LO1       0.212100
     13 N1           0.6220    -0.8450     5.0410 n8         1 LO1      -0.995200
     14 N7          -0.4770    -0.0390    -1.2720 ns         1 LO1      -0.147000
     15 H2          -2.3040    -0.5900     0.5330 ha         1 LO1       0.128500
     16 H3          -2.1010    -0.4200     2.9920 ha         1 LO1       0.101000
     17 H5           1.9730     0.9500     2.5610 ha         1 LO1       0.101000
     18 H6           1.7820     0.7860     0.1190 ha         1 LO1       0.128500
     19 HC1         -0.9130     0.5780     4.9050 h1         1 LO1       0.019700
     20 HC2          0.7350     1.2280     4.7250 h1         1 LO1       0.019700
     21 H1N1         0.5930    -0.7690     6.0640 hn         1 LO1       0.385500
     22 H1N2        -0.0240    -1.6130     4.8310 hn         1 LO1       0.385500
     23 H7          -1.3970    -0.3760    -1.5300 hn         1 LO1       0.182000
@<TRIPOS>BOND
     1     1     2 1   
     2     1     3 1   
     3     1     4 1   
     4     4     5 2   
     5     4    14 1   
     6     6     7 ar  
     7     6    11 ar  
     8     6    14 1   
     9     7     8 ar  
    10     7    15 1   
    11     8     9 ar  
    12     8    16 1   
    13     9    10 ar  
    14     9    12 1   
    15    10    11 ar  
    16    10    17 1   
    17    11    18 1   
    18    12    13 1   
    19    12    19 1   
    20    12    20 1   
    21    13    21 1   
    22    13    22 1   
    23    14    23 1   
@<TRIPOS>SUBSTRUCTURE
     1 LO1         1 TEMP              0 ****  ****    0 ROOT
