@<TRIPOS>MOLECULE
LO2
   57    58     1     0     0
SMALL
abcg2


@<TRIPOS>ATOM
      1 C1          -1.2380     6.6470    -1.4780 c3         1 LO2      -0.089100
      2 C2          -1.5480     5.1820    -1.7540 c3         1 LO2      -0.074400
      3 C3          -1.1730     4.2740    -0.5900 c3         1 LO2      -0.106400
      4 C4          -1.4900     2.8110    -0.8810 c3         1 LO2       0.227800
      5 N5          -1.1050     1.9010     0.1810 nh         1 LO2      -0.829400
      6 C6          -2.0900     1.5760     1.1790 c3         1 LO2       0.272100
      7 C7          -2.6790     0.1850     1.0550 ca         1 LO2      -0.070300
      8 C8          -3.2540    -0.4080     2.1680 ca         1 LO2      -0.136000
      9 C9          -3.8260    -1.6660     2.0420 ca         1 LO2       0.134000
     10 CL10        -4.5350    -2.4230     3.4260 cl         1 LO2      -0.181000
     11 C11         -3.8210    -2.3600     0.8420 ca         1 LO2       0.074100
     12 O12         -4.3420    -3.6050     0.7490 os         1 LO2      -0.331100
     13 C13         -5.7010    -3.6470     0.3210 c3         1 LO2       0.147900
     14 C14         -3.2350    -1.7490    -0.2790 ca         1 LO2       0.135100
     15 O15         -3.2670    -2.4690    -1.4100 os         1 LO2      -0.323100
     16 C16         -2.6870    -1.9160    -2.5780 c3         1 LO2       0.143900
     17 C17         -2.6660    -0.4860    -0.1620 ca         1 LO2      -0.180000
     18 C18          0.1730     1.4260     0.2900 ca         1 LO2       0.368000
     19 C19          0.5320     0.5080     1.2940 ca         1 LO2      -0.196500
     20 C20          1.8250     0.0340     1.4130 ca         1 LO2      -0.027000
     21 C21          2.8370     0.4460     0.5480 ca         1 LO2      -0.219300
     22 C22          2.4810     1.3340    -0.4640 ca         1 LO2      -0.027000
     23 C23          1.1940     1.8200    -0.5930 ca         1 LO2      -0.196500
     24 C24          4.2720    -0.0540     0.6170 c3         1 LO2       0.128300
     25 O25          5.1690     0.7630    -0.0610 oh         1 LO2      -0.624000
     26 C26          4.7820    -0.1780     2.0800 c3         1 LO2       0.300500
     27 F27          6.0960    -0.3830     2.1240 f          1 LO2      -0.099833
     28 F28          4.5360     0.9570     2.7350 f          1 LO2      -0.099833
     29 F29          4.2120    -1.1740     2.7650 f          1 LO2      -0.099833
     30 C30          4.3630    -1.4050    -0.1260 c3         1 LO2       0.300500
     31 F31          4.0290    -1.2410    -1.4050 f          1 LO2      -0.099833
     32 F32          5.5940    -1.9230    -0.1040 f          1 LO2      -0.099833
     33 F33          3.5370    -2.3150     0.3890 f          1 LO2      -0.099833
     34 H1          -1.5050     7.2790    -2.3250 hc         1 LO2       0.035367
     35 H1A         -1.7900     7.0070    -0.6080 hc         1 LO2       0.035367
     36 H1B         -0.1750     6.7920    -1.2760 hc         1 LO2       0.035367
     37 H2          -2.6130     5.0670    -1.9770 hc         1 LO2       0.037700
     38 H2A         -1.0130     4.8560    -2.6520 hc         1 LO2       0.037700
     39 H3          -0.1070     4.3870    -0.3660 hc         1 LO2       0.049200
     40 H3A         -1.7110     4.5870     0.3110 hc         1 LO2       0.049200
     41 H4          -2.5630     2.6980    -1.0430 h1         1 LO2       0.049700
     42 H4A         -1.0200     2.5000    -1.8180 h1         1 LO2       0.049700
     43 H6          -1.6830     1.7070     2.1870 h1         1 LO2       0.060200
     44 H6A         -2.9000     2.3050     1.1000 h1         1 LO2       0.060200
     45 H8          -3.2580     0.0990     3.1250 ha         1 LO2       0.131000
     46 H13         -5.9980    -4.6940     0.3100 h1         1 LO2       0.038700
     47 H13A        -6.3530    -3.1030     1.0080 h1         1 LO2       0.038700
     48 H13B        -5.8210    -3.2360    -0.6830 h1         1 LO2       0.038700
     49 H16         -2.8410    -2.6430    -3.3700 h1         1 LO2       0.044367
     50 H16A        -3.1630    -0.9750    -2.8620 h1         1 LO2       0.044367
     51 H16B        -1.6140    -1.7480    -2.4570 h1         1 LO2       0.044367
     52 H17         -2.2000    -0.0120    -1.0150 ha         1 LO2       0.128000
     53 H19         -0.2020     0.1330     1.9930 ha         1 LO2       0.122500
     54 H20          2.0080    -0.6760     2.2060 ha         1 LO2       0.123000
     55 H22          3.2130     1.6760    -1.1830 ha         1 LO2       0.123000
     56 H23          0.9990     2.5180    -1.3940 ha         1 LO2       0.122500
     57 HO25         5.0090     1.6900     0.1580 ho         1 LO2       0.478000
@<TRIPOS>BOND
     1     1     2 1   
     2     1    34 1   
     3     1    35 1   
     4     1    36 1   
     5     2     3 1   
     6     2    37 1   
     7     2    38 1   
     8     3     4 1   
     9     3    39 1   
    10     3    40 1   
    11     4     5 1   
    12     4    41 1   
    13     4    42 1   
    14     5     6 1   
    15     5    18 1   
    16     6     7 1   
    17     6    43 1   
    18     6    44 1   
    19     7     8 ar  
    20     7    17 ar  
    21     8     9 ar  
    22     8    45 1   
    23     9    10 1   
    24     9    11 ar  
    25    11    12 1   
    26    11    14 ar  
    27    12    13 1   
    28    13    46 1   
    29    13    47 1   
    30    13    48 1   
    31    14    15 1   
    32    14    17 ar  
    33    15    16 1   
    34    16    49 1   
    35    16    50 1   
    36    16    51 1   
    37    17    52 1   
    38    18    19 ar  
    39    18    23 ar  
    40    19    20 ar  
    41    19    53 1   
    42    20    21 ar  
    43    20    54 1   
    44    21    22 ar  
    45    21    24 1   
    46    22    23 ar  
    47    22    55 1   
    48    23    56 1   
    49    24    25 1   
    50    24    26 1   
    51    24    30 1   
    52    25    57 1   
    53    26    27 1   
    54    26    28 1   
    55    26    29 1   
    56    30    31 1   
    57    30    32 1   
    58    30    33 1   
@<TRIPOS>SUBSTRUCTURE
     1 LO2         1 TEMP              0 ****  ****    0 ROOT
