@<TRIPOS>MOLECULE
LO2
   57    58     1     0     0
SMALL
No Charge or Current Charge


@<TRIPOS>ATOM
      1 C1          -1.3500     6.7170    -1.7730 c3         1 LO2      -0.089100
      2 C2          -1.5720     5.2080    -1.9920 c3         1 LO2      -0.074400
      3 C3          -1.1930     4.3570    -0.7600 c3         1 LO2      -0.106400
      4 C4          -1.4170     2.8460    -0.9800 c3         1 LO2       0.227800
      5 N5          -1.0320     2.0180     0.1890 nh         1 LO2      -0.829400
      6 C6          -2.0940     1.7980     1.2060 c3         1 LO2       0.272100
      7 C7          -2.7620     0.4180     1.1720 ca         1 LO2      -0.070300
      8 C8          -3.1230    -0.2080     2.3750 ca         1 LO2      -0.136000
      9 C9          -3.7300    -1.4720     2.3670 ca         1 LO2       0.134000
     10 Cl10        -4.1550    -2.2040     3.9170 cl         1 LO2      -0.181000
     11 C11         -3.9960    -2.1480     1.1550 ca         1 LO2       0.074100
     12 O12         -4.6020    -3.4010     1.2640 os         1 LO2      -0.331100
     13 C13         -4.9510    -4.2470     0.1550 c3         1 LO2       0.147900
     14 C14         -3.6350    -1.5180    -0.0760 ca         1 LO2       0.135100
     15 O15         -3.8760    -2.1440    -1.2890 os         1 LO2      -0.323100
     16 C16         -3.5190    -1.5670    -2.5580 c3         1 LO2       0.143900
     17 C17         -3.0250    -0.2400    -0.0450 ca         1 LO2      -0.180000
     18 C18          0.2790     1.4710     0.3370 ca         1 LO2       0.368000
     19 C19          0.5500     0.4700     1.2900 ca         1 LO2      -0.196500
     20 C20          1.8360    -0.0740     1.4390 ca         1 LO2      -0.027000
     21 C21          2.9150     0.3750     0.6420 ca         1 LO2      -0.219300
     22 C22          2.6390     1.3740    -0.3200 ca         1 LO2      -0.027000
     23 C23          1.3510     1.9110    -0.4640 ca         1 LO2      -0.196500
     24 C24          4.3540    -0.2130     0.7580 c3         1 LO2       0.128300
     25 O25          5.2610     0.9050     0.6000 oh         1 LO2      -0.624000
     26 C26          4.6770    -0.8770     2.1650 c3         1 LO2       0.300500
     27 F27          6.0030    -1.1150     2.3110 f          1 LO2      -0.099833
     28 F28          4.3130    -0.0600     3.1830 f          1 LO2      -0.099833
     29 F29          4.0450    -2.0610     2.3430 f          1 LO2      -0.099833
     30 C30          4.5970    -1.2370    -0.4230 c3         1 LO2       0.300500
     31 F31          4.4890    -0.6370    -1.6330 f          1 LO2      -0.099833
     32 F32          5.8300    -1.7950    -0.3690 f          1 LO2      -0.099833
     33 F33          3.6930    -2.2450    -0.4000 f          1 LO2      -0.099833
     34 H1          -1.6320     7.2790    -2.6720 hc         1 LO2       0.035367
     35 H1A         -1.9580     7.0810    -0.9360 hc         1 LO2       0.035367
     36 H1B         -0.2960     6.9270    -1.5540 hc         1 LO2       0.035367
     37 H2          -2.6260     5.0350    -2.2430 hc         1 LO2       0.037700
     38 H2A         -0.9790     4.8820    -2.8550 hc         1 LO2       0.037700
     39 H3          -0.1410     4.5360    -0.5070 hc         1 LO2       0.049200
     40 H3A         -1.7870     4.6840     0.1020 hc         1 LO2       0.049200
     41 H4          -2.4800     2.6850    -1.2080 h1         1 LO2       0.049700
     42 H4A         -0.8720     2.5180    -1.8750 h1         1 LO2       0.049700
     43 H6          -1.6720     1.9690     2.2060 h1         1 LO2       0.060200
     44 H6A         -2.8840     2.5540     1.0910 h1         1 LO2       0.060200
     45 H8          -2.9320     0.2830     3.3260 ha         1 LO2       0.131000
     46 H13         -5.4120    -5.1730     0.5190 h1         1 LO2       0.038700
     47 H13A        -5.6750    -3.7510    -0.5050 h1         1 LO2       0.038700
     48 H13B        -4.0610    -4.5220    -0.4250 h1         1 LO2       0.038700
     49 H16         -3.8000    -2.2440    -3.3740 h1         1 LO2       0.044367
     50 H16A        -4.0390    -0.6140    -2.7150 h1         1 LO2       0.044367
     51 H16B        -2.4360    -1.3960    -2.6190 h1         1 LO2       0.044367
     52 H17         -2.7400     0.2590    -0.9640 ha         1 LO2       0.128000
     53 H19         -0.2360     0.0860     1.9280 ha         1 LO2       0.122500
     54 H20          1.9630    -0.8530     2.1840 ha         1 LO2       0.123000
     55 H22          3.4270     1.7440    -0.9740 ha         1 LO2       0.123000
     56 H23          1.2060     2.6830    -1.2110 ha         1 LO2       0.122500
     57 HO25         4.9410     1.6170     1.1970 ho         1 LO2       0.478000
@<TRIPOS>BOND
     1     1     2 1   
     2     1    34 1   
     3     1    35 1   
     4     1    36 1   
     5     2     3 1   
     6     2    37 1   
     7     2    38 1   
     8     3     4 1   
     9     3    39 1   
    10     3    40 1   
    11     4     5 1   
    12     4    41 1   
    13     4    42 1   
    14     5     6 1   
    15     5    18 1   
    16     6     7 1   
    17     6    43 1   
    18     6    44 1   
    19     7     8 ar  
    20     7    17 ar  
    21     8     9 ar  
    22     8    45 1   
    23     9    10 1   
    24     9    11 ar  
    25    11    12 1   
    26    11    14 ar  
    27    12    13 1   
    28    13    46 1   
    29    13    47 1   
    30    13    48 1   
    31    14    15 1   
    32    14    17 ar  
    33    15    16 1   
    34    16    49 1   
    35    16    50 1   
    36    16    51 1   
    37    17    52 1   
    38    18    19 ar  
    39    18    23 ar  
    40    19    20 ar  
    41    19    53 1   
    42    20    21 ar  
    43    20    54 1   
    44    21    22 ar  
    45    21    24 1   
    46    22    23 ar  
    47    22    55 1   
    48    23    56 1   
    49    24    25 1   
    50    24    26 1   
    51    24    30 1   
    52    25    57 1   
    53    26    27 1   
    54    26    28 1   
    55    26    29 1   
    56    30    31 1   
    57    30    32 1   
    58    30    33 1   
@<TRIPOS>SUBSTRUCTURE
     1 LO2         1 TEMP              0 ****  ****    0 ROOT
