@<TRIPOS>MOLECULE
LO3
  124   127     1     0     0
SMALL
abcg2


@<TRIPOS>ATOM
      1 C1          -9.9770   -36.4080   -28.7270 c          1 LO3       0.603300
      2 O1          -8.7450   -36.8790   -28.5240 os         1 LO3      -0.467100
      3 C2         -10.0610   -34.9470   -28.6500 ce         1 LO3      -0.287200
      4 O2         -10.9450   -37.1200   -28.9700 o          1 LO3      -0.519000
      5 C3          -8.9730   -34.1700   -28.5150 cf         1 LO3      -0.084000
      6 O3          -6.9570   -30.5000   -26.8310 oh         1 LO3      -0.720000
      7 C4          -8.9410   -32.7170   -28.4830 cf         1 LO3      -0.088200
      8 O4          -5.7810   -29.0250   -28.7110 os         1 LO3      -0.485000
      9 C5          -7.7330   -32.1520   -28.3050 c2         1 LO3      -0.173200
     10 O5          -4.5540   -30.6560   -31.5820 os         1 LO3      -0.479000
     11 C6          -7.3950   -30.7040   -28.1830 c3         1 LO3       0.190500
     12 O6          -2.9400   -34.4520   -30.7030 os         1 LO3      -0.465000
     13 C7          -6.2680   -30.2990   -29.1530 c3         1 LO3       0.138300
     14 O7          -6.7810   -34.6880   -30.8020 os         1 LO3      -0.472000
     15 C8          -6.7500   -30.2060   -30.5960 c3         1 LO3      -0.103400
     16 O8          -8.3220   -38.4170   -31.8900 os         1 LO3      -0.464000
     17 C9          -5.6500   -29.7350   -31.5540 c6         1 LO3       0.200500
     18 O9         -10.6060   -39.6560   -27.7030 oh         1 LO3      -0.678000
     19 C10         -6.1540   -29.4040   -32.9280 c2         1 LO3      -0.256200
     20 O10         -9.3670   -44.5420   -26.1080 os         1 LO3      -0.461000
     21 C11         -5.6680   -29.9630   -34.0310 c2         1 LO3      -0.197200
     22 O11         -8.7860   -46.2280   -22.3510 os         1 LO3      -0.465000
     23 C12         -4.6440   -31.0600   -33.9650 c6         1 LO3      -0.073200
     24 C13         -4.6670   -31.6840   -32.5790 c6         1 LO3       0.170300
     25 O13         -5.1100   -34.7020   -33.4950 op         1 LO3      -0.452000
     26 C14         -3.5540   -32.6890   -32.3110 c3         1 LO3      -0.090400
     27 C15         -4.0210   -33.8150   -31.3900 c3         1 LO3       0.181300
     28 C16         -4.7570   -34.9410   -32.1170 cx         1 LO3       0.066000
     29 C17         -5.8120   -35.6370   -31.2660 c3         1 LO3       0.193300
     30 C18         -6.4470   -36.8680   -31.9140 c3         1 LO3      -0.126400
     31 C19         -7.6040   -37.4580   -31.1050 c3         1 LO3       0.170300
     32 C20         -7.1780   -38.1390   -29.7950 c3         1 LO3      -0.058700
     33 C21         -8.4010   -38.2550   -28.8750 c3         1 LO3       0.180300
     34 C22         -8.2220   -39.0670   -27.5920 c3         1 LO3      -0.099700
     35 C23         -9.5610   -39.2040   -26.8340 c3         1 LO3       0.178300
     36 C24         -9.5060   -40.1480   -25.6220 c3         1 LO3      -0.049700
     37 C25         -9.2020   -41.6000   -26.0140 c3         1 LO3      -0.066400
     38 C26         -8.8450   -42.4970   -24.8300 c3         1 LO3      -0.103400
     39 C27         -8.4000   -43.8950   -25.2650 c6         1 LO3       0.171300
     40 C28         -8.0210   -44.8100   -24.0980 c6         1 LO3      -0.101400
     41 C29         -9.2430   -45.2920   -23.3310 c6         1 LO3       0.172300
     42 C30        -10.2540   -45.9030   -24.2970 c6         1 LO3      -0.137400
     43 C31        -10.5700   -44.9370   -25.4390 c6         1 LO3       0.169300
     44 C32        -10.2300   -31.9660   -28.6520 c3         1 LO3      -0.056900
     45 C33         -4.3780   -28.9800   -28.4560 c3         1 LO3       0.141900
     46 C34         -2.5320   -33.7560   -29.5340 c3         1 LO3       0.144900
     47 C35         -4.0560   -35.6300   -33.2010 cx         1 LO3       0.104600
     48 C36         -7.6730   -34.1490   -31.7720 c3         1 LO3       0.136900
     49 C37         -9.3290   -37.8460   -32.7080 c3         1 LO3       0.141900
     50 C38         -6.5030   -39.4910   -30.0370 c3         1 LO3      -0.080100
     51 C39         -7.1220   -38.4960   -26.6920 c3         1 LO3      -0.082100
     52 C40        -10.7970   -40.0360   -24.8060 c3         1 LO3      -0.084100
     53 C42        -11.4790   -45.5470   -26.4880 c3         1 LO3      -0.087100
     54 H2         -11.0590   -34.5430   -28.7490 ha         1 LO3       0.204000
     55 H3          -8.0090   -34.6570   -28.4430 ha         1 LO3       0.200000
     56 HO3         -6.5180   -29.6350   -26.8320 ho         1 LO3       0.517000
     57 H5          -6.8780   -32.8130   -28.1950 ha         1 LO3       0.183000
     58 H6          -8.2610   -30.0650   -28.3800 h1         1 LO3       0.049700
     59 H7          -5.4620   -31.0350   -29.0740 h1         1 LO3       0.059700
     60 H8          -7.1340   -31.1770   -30.9160 hc         1 LO3       0.057200
     61 H8A         -7.5820   -29.4970   -30.6450 hc         1 LO3       0.057200
     62 H9          -5.2270   -28.8170   -31.1360 h1         1 LO3       0.081700
     63 HO9        -10.8820   -38.8940   -28.2400 ho         1 LO3       0.468000
     64 H10         -6.9210   -28.6380   -32.9790 ha         1 LO3       0.182000
     65 H11         -6.0260   -29.6510   -35.0060 ha         1 LO3       0.180000
     66 H12         -4.8630   -31.8300   -34.7090 hc         1 LO3       0.063700
     67 H12A        -3.6410   -30.6790   -34.1920 hc         1 LO3       0.063700
     68 H13         -5.6380   -32.1740   -32.4560 h1         1 LO3       0.043700
     69 H14         -3.1800   -33.0950   -33.2500 hc         1 LO3       0.065700
     70 H14A        -2.7280   -32.1580   -31.8360 hc         1 LO3       0.065700
     71 H15         -4.7000   -33.3940   -30.6420 h1         1 LO3       0.064700
     72 H17         -5.3010   -35.9410   -30.3490 h1         1 LO3       0.086700
     73 H18         -6.8130   -36.6090   -32.9090 hc         1 LO3       0.062200
     74 H18A        -5.6770   -37.6270   -32.0500 hc         1 LO3       0.062200
     75 H19         -8.2890   -36.6470   -30.8540 h1         1 LO3       0.047700
     76 H20         -6.4630   -37.4740   -29.3070 hc         1 LO3       0.064700
     77 H21         -9.2220   -38.6730   -29.4520 h1         1 LO3       0.083700
     78 H22         -7.9300   -40.0650   -27.9230 hc         1 LO3       0.072700
     79 H23         -9.8280   -38.2100   -26.4520 h1         1 LO3       0.029700
     80 H24         -8.6880   -39.7940   -24.9880 hc         1 LO3       0.040700
     81 H25        -10.0610   -42.0170   -26.5440 hc         1 LO3       0.053200
     82 H26         -8.0150   -42.0510   -24.2730 hc         1 LO3       0.040700
     83 H27         -7.5280   -43.7790   -25.9130 h1         1 LO3       0.069700
     84 H28         -7.5000   -45.6870   -24.4920 hc         1 LO3       0.060700
     85 H28A        -7.3370   -44.2890   -23.4260 hc         1 LO3       0.060700
     86 H29         -9.7110   -44.4490   -22.8060 h1         1 LO3       0.031700
     87 H30         -9.8310   -46.8220   -24.7150 hc         1 LO3       0.055700
     88 H30A       -11.1820   -46.1620   -23.7830 hc         1 LO3       0.055700
     89 H31        -11.0590   -44.0460   -25.0250 h1         1 LO3       0.034700
     90 H32        -10.0960   -30.8910   -28.5640 hc         1 LO3       0.046700
     91 H32A       -10.6660   -32.1770   -29.6320 hc         1 LO3       0.046700
     92 H32B       -10.9590   -32.2840   -27.9030 hc         1 LO3       0.046700
     93 H33         -4.1520   -27.9720   -28.1110 h1         1 LO3       0.038700
     94 H33A        -4.0970   -29.7000   -27.6820 h1         1 LO3       0.038700
     95 H33B        -3.8030   -29.1900   -29.3610 h1         1 LO3       0.038700
     96 H34         -1.7390   -34.3430   -29.0720 h1         1 LO3       0.034367
     97 H34A        -2.1470   -32.7580   -29.7670 h1         1 LO3       0.034367
     98 H34B        -3.3660   -33.6540   -28.8310 h1         1 LO3       0.034367
     99 H35         -4.2780   -36.6650   -33.4290 h1         1 LO3       0.083200
    100 H35A        -3.0620   -35.2940   -33.4760 h1         1 LO3       0.083200
    101 H36         -8.2830   -33.4180   -31.2450 h1         1 LO3       0.037033
    102 H36A        -7.1440   -33.6530   -32.5860 h1         1 LO3       0.037033
    103 H36B        -8.3270   -34.9140   -32.1960 h1         1 LO3       0.037033
    104 H37         -9.8140   -38.6640   -33.2400 h1         1 LO3       0.033033
    105 H37A       -10.0730   -37.3190   -32.1010 h1         1 LO3       0.033033
    106 H37B        -8.9140   -37.1450   -33.4400 h1         1 LO3       0.033033
    107 H38         -6.0270   -39.8590   -29.1290 hc         1 LO3       0.042033
    108 H38A        -7.2240   -40.2370   -30.3700 hc         1 LO3       0.042033
    109 H38B        -5.7310   -39.4060   -30.8020 hc         1 LO3       0.042033
    110 H39         -6.8710   -39.1900   -25.8920 hc         1 LO3       0.037367
    111 H39A        -6.2080   -38.3010   -27.2540 hc         1 LO3       0.037367
    112 H39B        -7.4420   -37.5560   -26.2390 hc         1 LO3       0.037367
    113 H40        -10.7320   -40.6090   -23.8810 hc         1 LO3       0.035367
    114 H40A       -10.9980   -38.9950   -24.5400 hc         1 LO3       0.035367
    115 H40B       -11.6490   -40.4090   -25.3770 hc         1 LO3       0.035367
    116 H41         -9.2410   -47.1530   -20.6050 h1         1 LO3       0.029033
    117 H41A       -10.0790   -45.6000   -20.8470 h1         1 LO3       0.029033
    118 H41B       -10.6090   -47.0500   -21.7330 h1         1 LO3       0.029033
    119 H42        -12.4280   -45.8440   -26.0380 hc         1 LO3       0.044367
    120 H42A       -11.6830   -44.8270   -27.2820 hc         1 LO3       0.044367
    121 H42B       -11.0130   -46.4310   -26.9280 hc         1 LO3       0.044367
    122 H69         -8.3660   -41.6260   -26.7170 hc         1 LO3       0.053200
    123 H70         -9.6810   -42.5620   -24.1320 hc         1 LO3       0.040700
    124 C41         -9.7380   -46.5180   -21.3390 c3         1 LO3       0.147900
@<TRIPOS>BOND
     1     1     2 1   
     2     1     3 1   
     3     1     4 2   
     4     2    33 1   
     5     3     5 2   
     6     3    54 1   
     7     5     7 1   
     8     5    55 1   
     9     6    11 1   
    10     6    56 1   
    11     7     9 2   
    12     7    44 1   
    13     8    13 1   
    14     8    45 1   
    15     9    11 1   
    16     9    57 1   
    17    10    17 1   
    18    10    24 1   
    19    11    13 1   
    20    11    58 1   
    21    12    27 1   
    22    12    46 1   
    23    13    15 1   
    24    13    59 1   
    25    14    29 1   
    26    14    48 1   
    27    15    17 1   
    28    15    60 1   
    29    15    61 1   
    30    16    31 1   
    31    16    49 1   
    32    17    19 1   
    33    17    62 1   
    34    18    35 1   
    35    18    63 1   
    36    19    21 2   
    37    19    64 1   
    38    20    39 1   
    39    20    43 1   
    40    21    23 1   
    41    21    65 1   
    42    22    41 1   
    43    22   124 1   
    44    23    24 1   
    45    23    66 1   
    46    23    67 1   
    47    24    26 1   
    48    24    68 1   
    49    25    28 1   
    50    25    47 1   
    51    26    27 1   
    52    26    69 1   
    53    26    70 1   
    54    27    28 1   
    55    27    71 1   
    56    28    29 1   
    57    28    47 1   
    58    29    30 1   
    59    29    72 1   
    60    30    31 1   
    61    30    73 1   
    62    30    74 1   
    63    31    32 1   
    64    31    75 1   
    65    32    33 1   
    66    32    50 1   
    67    32    76 1   
    68    33    34 1   
    69    33    77 1   
    70    34    35 1   
    71    34    51 1   
    72    34    78 1   
    73    35    36 1   
    74    35    79 1   
    75    36    37 1   
    76    36    52 1   
    77    36    80 1   
    78    37    38 1   
    79    37    81 1   
    80    37   122 1   
    81    38    39 1   
    82    38    82 1   
    83    38   123 1   
    84    39    40 1   
    85    39    83 1   
    86    40    41 1   
    87    40    84 1   
    88    40    85 1   
    89    41    42 1   
    90    41    86 1   
    91    42    43 1   
    92    42    87 1   
    93    42    88 1   
    94    43    53 1   
    95    43    89 1   
    96    44    90 1   
    97    44    91 1   
    98    44    92 1   
    99    45    93 1   
   100    45    94 1   
   101    45    95 1   
   102    46    96 1   
   103    46    97 1   
   104    46    98 1   
   105    47    99 1   
   106    47   100 1   
   107    48   101 1   
   108    48   102 1   
   109    48   103 1   
   110    49   104 1   
   111    49   105 1   
   112    49   106 1   
   113    50   107 1   
   114    50   108 1   
   115    50   109 1   
   116    51   110 1   
   117    51   111 1   
   118    51   112 1   
   119    52   113 1   
   120    52   114 1   
   121    52   115 1   
   122    53   119 1   
   123    53   120 1   
   124    53   121 1   
   125   116   124 1   
   126   117   124 1   
   127   118   124 1   
@<TRIPOS>SUBSTRUCTURE
     1 LO3         1 TEMP              0 ****  ****    0 ROOT
