@<TRIPOS>MOLECULE
LO3
  124   127     1     0     0
SMALL
No Charge or Current Charge


@<TRIPOS>ATOM
      1 C1         -10.1250   -36.5400   -28.5660 c          1 LO3       0.603300
      2 O1          -8.8310   -36.9790   -28.5460 os         1 LO3      -0.467100
      3 C2         -10.1940   -35.0570   -28.4730 ce         1 LO3      -0.287200
      4 O2         -11.1050   -37.2630   -28.6730 o          1 LO3      -0.519000
      5 C3          -9.1060   -34.2250   -28.4400 cf         1 LO3      -0.084000
      6 O3          -7.5860   -30.1530   -27.1790 oh         1 LO3      -0.720000
      7 C4          -9.1010   -32.7620   -28.4090 cf         1 LO3      -0.088200
      8 O4          -5.9150   -28.9410   -28.6570 os         1 LO3      -0.485000
      9 C5          -7.9230   -32.0990   -28.5420 c2         1 LO3      -0.173200
     10 O5          -4.3570   -30.4960   -31.5720 os         1 LO3      -0.479000
     11 C6          -7.6830   -30.6010   -28.5310 c3         1 LO3       0.190500
     12 O6          -2.8300   -34.5540   -30.8760 os         1 LO3      -0.465000
     13 C7          -6.3810   -30.1680   -29.2830 c3         1 LO3       0.138300
     14 O7          -6.7570   -34.6250   -30.8100 os         1 LO3      -0.472000
     15 C8          -6.6120   -29.9070   -30.7970 c3         1 LO3      -0.103400
     16 O8          -8.5850   -38.2450   -32.0430 os         1 LO3      -0.464000
     17 C9          -5.3620   -29.4470   -31.5990 c6         1 LO3       0.200500
     18 O9         -10.6260   -39.7600   -27.5660 oh         1 LO3      -0.678000
     19 C10         -5.7350   -29.0670   -33.0310 c2         1 LO3      -0.256200
     20 O10         -9.0600   -44.6880   -25.8600 os         1 LO3      -0.461000
     21 C11         -5.2990   -29.7390   -34.1100 c2         1 LO3      -0.197200
     22 O11         -9.1200   -46.3240   -21.9930 os         1 LO3      -0.465000
     23 C12         -4.4040   -30.9580   -33.9740 c6         1 LO3      -0.073200
     24 C13         -4.5150   -31.5530   -32.5500 c6         1 LO3       0.170300
     25 O13         -5.0810   -34.5940   -33.6300 op         1 LO3      -0.452000
     26 C14         -3.4280   -32.6260   -32.2580 c3         1 LO3      -0.090400
     27 C15         -3.9560   -33.8310   -31.4260 c3         1 LO3       0.181300
     28 C16         -4.7830   -34.8640   -32.2310 cx         1 LO3       0.066000
     29 C17         -5.8390   -35.6050   -31.3710 c3         1 LO3       0.193300
     30 C18         -6.6530   -36.7320   -32.0850 c3         1 LO3      -0.126400
     31 C19         -7.7970   -37.3520   -31.2240 c3         1 LO3       0.170300
     32 C20         -7.3270   -38.1640   -29.9670 c3         1 LO3      -0.058700
     33 C21         -8.5100   -38.3220   -28.9560 c3         1 LO3       0.180300
     34 C22         -8.2460   -39.1760   -27.6630 c3         1 LO3      -0.099700
     35 C23         -9.5260   -39.3110   -26.7650 c3         1 LO3       0.178300
     36 C24         -9.4050   -40.2210   -25.4920 c3         1 LO3      -0.049700
     37 C25         -9.0090   -41.6970   -25.8110 c3         1 LO3      -0.066400
     38 C26         -8.7740   -42.5960   -24.5690 c3         1 LO3      -0.103400
     39 C27         -8.2090   -44.0160   -24.8980 c6         1 LO3       0.171300
     40 C28         -8.0160   -44.9190   -23.6530 c6         1 LO3      -0.101400
     41 C29         -9.3700   -45.3930   -23.0680 c6         1 LO3       0.172300
     42 C30        -10.2450   -46.0240   -24.1840 c6         1 LO3      -0.137400
     43 C31        -10.3740   -45.0580   -25.3870 c6         1 LO3       0.169300
     44 C32        -10.4300   -32.0480   -28.1870 c3         1 LO3      -0.056900
     45 C33         -4.5050   -28.8940   -28.3530 c3         1 LO3       0.141900
     46 C34         -2.2120   -33.9770   -29.7080 c3         1 LO3       0.144900
     47 C35         -4.0750   -35.5960   -33.3470 cx         1 LO3       0.104600
     48 C36         -7.6540   -33.9360   -31.7130 c3         1 LO3       0.136900
     49 C37         -9.4730   -37.6290   -32.9970 c3         1 LO3       0.141900
     50 C38         -6.6560   -39.5180   -30.3420 c3         1 LO3      -0.080100
     51 C39         -7.0250   -38.6560   -26.8480 c3         1 LO3      -0.082100
     52 C40        -10.6920   -40.1310   -24.6280 c3         1 LO3      -0.084100
     53 C42        -11.1190   -45.7000   -26.5800 c3         1 LO3      -0.087100
     54 H2         -11.2010   -34.6490   -28.4730 ha         1 LO3       0.204000
     55 H3          -8.1160   -34.6860   -28.4730 ha         1 LO3       0.200000
     56 HO3         -6.9410   -29.4050   -27.2590 ho         1 LO3       0.517000
     57 H5          -7.0120   -32.6810   -28.6800 ha         1 LO3       0.183000
     58 H6          -8.5310   -30.1000   -29.0200 h1         1 LO3       0.049700
     59 H7          -5.6320   -30.9650   -29.1720 h1         1 LO3       0.059700
     60 H8          -7.0360   -30.8110   -31.2490 hc         1 LO3       0.057200
     61 H8A         -7.3890   -29.1400   -30.8900 hc         1 LO3       0.057200
     62 H9          -4.9470   -28.5550   -31.1070 h1         1 LO3       0.081700
     63 HO9        -10.9680   -38.9510   -28.0230 ho         1 LO3       0.468000
     64 H10         -6.3790   -28.1930   -33.1410 ha         1 LO3       0.182000
     65 H11         -5.5780   -29.4350   -35.1210 ha         1 LO3       0.180000
     66 H12         -4.6950   -31.7190   -34.7110 hc         1 LO3       0.063700
     67 H12A        -3.3650   -30.6790   -34.1960 hc         1 LO3       0.063700
     68 H13         -5.5090   -32.0050   -32.4340 h1         1 LO3       0.043700
     69 H14         -3.0030   -33.0000   -33.1960 hc         1 LO3       0.065700
     70 H14A        -2.5900   -32.1450   -31.7440 hc         1 LO3       0.065700
     71 H15         -4.5760   -33.4330   -30.6100 h1         1 LO3       0.064700
     72 H17         -5.2840   -36.0770   -30.5500 h1         1 LO3       0.086700
     73 H18         -7.0610   -36.3230   -33.0140 hc         1 LO3       0.062200
     74 H18A        -5.9710   -37.5310   -32.3880 hc         1 LO3       0.062200
     75 H19         -8.4330   -36.5250   -30.8840 h1         1 LO3       0.047700
     76 H20         -6.5630   -37.5610   -29.4660 hc         1 LO3       0.064700
     77 H21         -9.3350   -38.7800   -29.5200 h1         1 LO3       0.083700
     78 H22         -7.9990   -40.1830   -28.0130 hc         1 LO3       0.072700
     79 H23         -9.7560   -38.3030   -26.3930 h1         1 LO3       0.029700
     80 H24         -8.6080   -39.8000   -24.8680 hc         1 LO3       0.040700
     81 H25         -9.7840   -42.1490   -26.4420 hc         1 LO3       0.053200
     82 H26         -8.0640   -42.0840   -23.9090 hc         1 LO3       0.040700
     83 H27         -7.2250   -43.8710   -25.3690 h1         1 LO3       0.069700
     84 H28         -7.4160   -45.7940   -23.9370 hc         1 LO3       0.060700
     85 H28A        -7.4420   -44.3840   -22.8850 hc         1 LO3       0.060700
     86 H29         -9.8980   -44.5220   -22.6510 h1         1 LO3       0.031700
     87 H30         -9.8010   -46.9730   -24.5130 hc         1 LO3       0.055700
     88 H30A       -11.2480   -46.2530   -23.8020 hc         1 LO3       0.055700
     89 H31        -10.9270   -44.1570   -25.0870 h1         1 LO3       0.034700
     90 H32        -10.3020   -31.0090   -27.8650 hc         1 LO3       0.046700
     91 H32A       -11.0280   -32.0370   -29.1060 hc         1 LO3       0.046700
     92 H32B       -11.0230   -32.5400   -27.4070 hc         1 LO3       0.046700
     93 H33         -4.2410   -27.9210   -27.9190 h1         1 LO3       0.038700
     94 H33A        -4.2380   -29.6720   -27.6260 h1         1 LO3       0.038700
     95 H33B        -3.8920   -29.0420   -29.2500 h1         1 LO3       0.038700
     96 H34         -1.4180   -34.6370   -29.3360 h1         1 LO3       0.034367
     97 H34A        -1.7590   -33.0030   -29.9280 h1         1 LO3       0.034367
     98 H34B        -2.9470   -33.8450   -28.9040 h1         1 LO3       0.034367
     99 H35         -4.3550   -36.6170   -33.6030 h1         1 LO3       0.083200
    100 H35A        -3.0540   -35.3150   -33.6020 h1         1 LO3       0.083200
    101 H36         -8.2120   -33.1610   -31.1730 h1         1 LO3       0.037033
    102 H36A        -7.1130   -33.4470   -32.5290 h1         1 LO3       0.037033
    103 H36B        -8.3890   -34.6230   -32.1500 h1         1 LO3       0.037033
    104 H37        -10.1050   -38.3910   -33.4700 h1         1 LO3       0.033033
    105 H37A       -10.1310   -36.9020   -32.5040 h1         1 LO3       0.033033
    106 H37B        -8.9200   -37.1170   -33.7930 h1         1 LO3       0.033033
    107 H38         -6.1840   -39.9820   -29.4680 hc         1 LO3       0.042033
    108 H38A        -7.3910   -40.2250   -30.7440 hc         1 LO3       0.042033
    109 H38B        -5.8690   -39.3810   -31.0910 hc         1 LO3       0.042033
    110 H39         -6.7600   -39.3500   -26.0420 hc         1 LO3       0.037367
    111 H39A        -6.1310   -38.5580   -27.4730 hc         1 LO3       0.037367
    112 H39B        -7.2390   -37.6770   -26.4020 hc         1 LO3       0.037367
    113 H40        -10.5310   -40.5570   -23.6310 hc         1 LO3       0.035367
    114 H40A       -10.9930   -39.0860   -24.4890 hc         1 LO3       0.035367
    115 H40B       -11.5240   -40.6670   -25.1000 hc         1 LO3       0.035367
    116 H41         -9.9140   -47.3780   -20.3720 h1         1 LO3       0.029033
    117 H41A       -10.7950   -45.8960   -20.8030 h1         1 LO3       0.029033
    118 H41B       -10.9430   -47.3570   -21.8150 h1         1 LO3       0.029033
    119 H42        -12.1370   -45.9910   -26.2960 hc         1 LO3       0.044367
    120 H42A       -11.1970   -44.9960   -27.4170 hc         1 LO3       0.044367
    121 H42B       -10.6000   -46.5970   -26.9400 hc         1 LO3       0.044367
    122 H69         -8.0850   -41.7060   -26.3980 hc         1 LO3       0.053200
    123 H70         -9.7040   -42.6760   -23.9970 hc         1 LO3       0.040700
    124 C41        -10.2500   -46.7570   -21.2120 c3         1 LO3       0.147900
@<TRIPOS>BOND
     1     1     2 1   
     2     1     3 1   
     3     1     4 2   
     4     2    33 1   
     5     3     5 2   
     6     3    54 1   
     7     5     7 1   
     8     5    55 1   
     9     6    11 1   
    10     6    56 1   
    11     7     9 2   
    12     7    44 1   
    13     8    13 1   
    14     8    45 1   
    15     9    11 1   
    16     9    57 1   
    17    10    17 1   
    18    10    24 1   
    19    11    13 1   
    20    11    58 1   
    21    12    27 1   
    22    12    46 1   
    23    13    15 1   
    24    13    59 1   
    25    14    29 1   
    26    14    48 1   
    27    15    17 1   
    28    15    60 1   
    29    15    61 1   
    30    16    31 1   
    31    16    49 1   
    32    17    19 1   
    33    17    62 1   
    34    18    35 1   
    35    18    63 1   
    36    19    21 2   
    37    19    64 1   
    38    20    39 1   
    39    20    43 1   
    40    21    23 1   
    41    21    65 1   
    42    22    41 1   
    43    22   124 1   
    44    23    24 1   
    45    23    66 1   
    46    23    67 1   
    47    24    26 1   
    48    24    68 1   
    49    25    28 1   
    50    25    47 1   
    51    26    27 1   
    52    26    69 1   
    53    26    70 1   
    54    27    28 1   
    55    27    71 1   
    56    28    29 1   
    57    28    47 1   
    58    29    30 1   
    59    29    72 1   
    60    30    31 1   
    61    30    73 1   
    62    30    74 1   
    63    31    32 1   
    64    31    75 1   
    65    32    33 1   
    66    32    50 1   
    67    32    76 1   
    68    33    34 1   
    69    33    77 1   
    70    34    35 1   
    71    34    51 1   
    72    34    78 1   
    73    35    36 1   
    74    35    79 1   
    75    36    37 1   
    76    36    52 1   
    77    36    80 1   
    78    37    38 1   
    79    37    81 1   
    80    37   122 1   
    81    38    39 1   
    82    38    82 1   
    83    38   123 1   
    84    39    40 1   
    85    39    83 1   
    86    40    41 1   
    87    40    84 1   
    88    40    85 1   
    89    41    42 1   
    90    41    86 1   
    91    42    43 1   
    92    42    87 1   
    93    42    88 1   
    94    43    53 1   
    95    43    89 1   
    96    44    90 1   
    97    44    91 1   
    98    44    92 1   
    99    45    93 1   
   100    45    94 1   
   101    45    95 1   
   102    46    96 1   
   103    46    97 1   
   104    46    98 1   
   105    47    99 1   
   106    47   100 1   
   107    48   101 1   
   108    48   102 1   
   109    48   103 1   
   110    49   104 1   
   111    49   105 1   
   112    49   106 1   
   113    50   107 1   
   114    50   108 1   
   115    50   109 1   
   116    51   110 1   
   117    51   111 1   
   118    51   112 1   
   119    52   113 1   
   120    52   114 1   
   121    52   115 1   
   122    53   119 1   
   123    53   120 1   
   124    53   121 1   
   125   116   124 1   
   126   117   124 1   
   127   118   124 1   
@<TRIPOS>SUBSTRUCTURE
     1 LO3         1 TEMP              0 ****  ****    0 ROOT
