@<TRIPOS>MOLECULE
LO4
   46    48     1     0     0
SMALL
No Charge or Current Charge


@<TRIPOS>ATOM
      1 C10         -0.9710     0.9670     0.4260 ca         1 LO4       0.144100
      2 C13          1.8080     1.4790     0.3670 ca         1 LO4      -0.133300
      3 C15         -0.2750     1.2360     1.6150 ca         1 LO4      -0.175500
      4 C17          4.1200     0.4840     0.1370 ce         1 LO4      -0.791400
      5 C21          5.1910    -1.8780     0.1270 c          1 LO4       0.816900
      6 C01         -5.1460     1.5350     0.4130 c3         1 LO4      -0.079100
      7 C02         -4.6250     0.2060    -0.2320 c6         1 LO4      -0.042000
      8 C03         -5.4460    -0.1420    -1.5180 c6         1 LO4      -0.066900
      9 C04         -6.9120    -0.5540    -1.2180 c6         1 LO4      -0.072400
     10 C05         -6.9680    -1.7300    -0.2140 c6         1 LO4      -0.075400
     11 C06         -6.1910    -1.4020     1.0830 c6         1 LO4      -0.072400
     12 C07         -4.7270    -0.9900     0.7720 c6         1 LO4      -0.066900
     13 C08         -3.1310     0.4390    -0.6460 c3         1 LO4       0.168600
     14 C11         -0.2720     0.9520    -0.8010 ca         1 LO4      -0.175500
     15 C12          1.1110     1.2070    -0.8250 ca         1 LO4      -0.073500
     16 C14          1.1080     1.4900     1.5890 ca         1 LO4      -0.073500
     17 C16          3.3060     1.7520     0.3280 c3         1 LO4       0.102100
     18 C18          5.1020     0.2020    -0.9640 c          1 LO4       0.619200
     19 N20          5.6080    -1.0630    -0.8650 ns         1 LO4      -0.470500
     20 O09         -2.3260     0.7260     0.5140 os         1 LO4      -0.348100
     21 O19          5.4130     0.9920    -1.8330 o          1 LO4      -0.532000
     22 O22          5.5860    -3.0200     0.3160 o          1 LO4      -0.456000
     23 S23          3.9280    -1.0210     1.2100 sx         1 LO4       0.035100
     24 H1          -0.8090     1.2470     2.5610 ha         1 LO4       0.120000
     25 H2          -6.2040     1.4820     0.6910 hc         1 LO4       0.037700
     26 H3          -4.5920     1.7850     1.3270 hc         1 LO4       0.037700
     27 H4          -5.0370     2.3810    -0.2770 hc         1 LO4       0.037700
     28 H5          -5.4420     0.7120    -2.2100 hc         1 LO4       0.041450
     29 H6          -4.9550    -0.9660    -2.0550 hc         1 LO4       0.041450
     30 H7          -7.4790     0.3010    -0.8260 hc         1 LO4       0.039700
     31 H8          -7.4100    -0.8450    -2.1530 hc         1 LO4       0.039700
     32 H9          -8.0130    -1.9670     0.0260 hc         1 LO4       0.038200
     33 H10         -6.5430    -2.6310    -0.6790 hc         1 LO4       0.038200
     34 H11         -6.7040    -0.6020     1.6340 hc         1 LO4       0.039700
     35 H12         -6.1940    -2.2780     1.7450 hc         1 LO4       0.039700
     36 H13         -4.1950    -1.8600     0.3610 hc         1 LO4       0.041450
     37 H14         -4.2160    -0.7420     1.7130 hc         1 LO4       0.041450
     38 H15         -2.7590    -0.4630    -1.1500 h1         1 LO4       0.034200
     39 H16         -3.0850     1.2720    -1.3600 h1         1 LO4       0.034200
     40 H17         -0.7800     0.7460    -1.7380 ha         1 LO4       0.120000
     41 H18          1.6460     1.1900    -1.7730 ha         1 LO4       0.113500
     42 H19          1.6340     1.6930     2.5190 ha         1 LO4       0.113500
     43 H20          3.5200     2.4700    -0.4740 hc         1 LO4       0.055700
     44 H21          3.6170     2.2560     1.2530 hc         1 LO4       0.055700
     45 H22          6.2850    -1.3930    -1.5320 hn         1 LO4       0.349500
     46 H23          5.0430    -0.7340     2.0030 hs         1 LO4       0.308000
@<TRIPOS>BOND
     1     1     3 ar  
     2     1    14 ar  
     3     1    20 1   
     4     2    15 ar  
     5     2    16 ar  
     6     2    17 1   
     7     3    16 ar  
     8     3    24 1   
     9     4    17 1   
    10     4    18 1   
    11     4    23 2   
    12     5    19 1   
    13     5    22 2   
    14     5    23 1   
    15     6     7 1   
    16     6    25 1   
    17     6    26 1   
    18     6    27 1   
    19     7     8 1   
    20     7    12 1   
    21     7    13 1   
    22     8     9 1   
    23     8    28 1   
    24     8    29 1   
    25     9    10 1   
    26     9    30 1   
    27     9    31 1   
    28    10    11 1   
    29    10    32 1   
    30    10    33 1   
    31    11    12 1   
    32    11    34 1   
    33    11    35 1   
    34    12    36 1   
    35    12    37 1   
    36    13    20 1   
    37    13    38 1   
    38    13    39 1   
    39    14    15 ar  
    40    14    40 1   
    41    15    41 1   
    42    16    42 1   
    43    17    43 1   
    44    17    44 1   
    45    18    19 1   
    46    18    21 2   
    47    19    45 1   
    48    23    46 1   
@<TRIPOS>SUBSTRUCTURE
     1 LO4         1 TEMP              0 ****  ****    0 ROOT
