@<TRIPOS>MOLECULE
LO4
   46    48     1     0     0
SMALL
abcg2


@<TRIPOS>ATOM
      1 C10         -1.0010     1.0740     0.5090 ca         1 LO4       0.144100
      2 C13          1.7800     1.5020     0.5600 ca         1 LO4      -0.133300
      3 C15         -0.3730     1.5210     1.6710 ca         1 LO4      -0.175500
      4 C17          4.0460     0.4940     0.1840 ce         1 LO4      -0.791400
      5 C21          4.7420    -1.9640    -0.3880 c          1 LO4       0.816900
      6 C01         -5.1060     1.5540     0.2430 c3         1 LO4      -0.079100
      7 C02         -4.5030     0.2230    -0.2140 c6         1 LO4      -0.042000
      8 C03         -5.1890    -0.2660    -1.5030 c6         1 LO4      -0.066900
      9 C04         -6.6320    -0.7130    -1.2860 c6         1 LO4      -0.072400
     10 C05         -6.7200    -1.7830    -0.2040 c6         1 LO4      -0.075400
     11 C06         -6.0880    -1.2970     1.0960 c6         1 LO4      -0.072400
     12 C07         -4.6440    -0.8540     0.8750 c6         1 LO4      -0.066900
     13 C08         -3.0290     0.4210    -0.5600 c3         1 LO4       0.168600
     14 C11         -0.2320     0.8480    -0.6320 ca         1 LO4      -0.175500
     15 C12          1.1400     1.0570    -0.5910 ca         1 LO4      -0.073500
     16 C14          0.9970     1.7280     1.6880 ca         1 LO4      -0.073500
     17 C16          3.2760     1.7080     0.5860 c3         1 LO4       0.102100
     18 C18          4.8680     0.3670    -0.9340 c          1 LO4       0.619200
     19 N20          5.2290    -1.0110    -1.1660 ns         1 LO4      -0.470500
     20 O09         -2.3320     0.8860     0.5820 os         1 LO4      -0.348100
     21 O19          5.2670     1.2190    -1.7200 o          1 LO4      -0.532000
     22 O22          4.8840    -3.1460    -0.3420 o          1 LO4      -0.456000
     23 S23          3.6470    -1.0440     0.8470 sx         1 LO4       0.035100
     24 H1          -0.9630     1.6990     2.5620 ha         1 LO4       0.120000
     25 H2          -6.1700     1.4650     0.4620 hc         1 LO4       0.037700
     26 H3          -4.6210     1.9180     1.1490 hc         1 LO4       0.037700
     27 H4          -4.9950     2.3170    -0.5300 hc         1 LO4       0.037700
     28 H5          -5.1480     0.5210    -2.2620 hc         1 LO4       0.041450
     29 H6          -4.6210    -1.1130    -1.9050 hc         1 LO4       0.041450
     30 H7          -7.2540     0.1430    -1.0060 hc         1 LO4       0.039700
     31 H8          -7.0400    -1.0890    -2.2270 hc         1 LO4       0.039700
     32 H9          -7.7600    -2.0730    -0.0380 hc         1 LO4       0.038200
     33 H10         -6.1950    -2.6830    -0.5420 hc         1 LO4       0.038200
     34 H11         -6.6790    -0.4710     1.5050 hc         1 LO4       0.039700
     35 H12         -6.1120    -2.0900     1.8470 hc         1 LO4       0.039700
     36 H13         -4.0570    -1.7310     0.5760 hc         1 LO4       0.041450
     37 H14         -4.2160    -0.4980     1.8150 hc         1 LO4       0.041450
     38 H15         -2.6030    -0.5320    -0.8990 h1         1 LO4       0.034200
     39 H16         -2.9300     1.1420    -1.3830 h1         1 LO4       0.034200
     40 H17         -0.6780     0.5050    -1.5550 ha         1 LO4       0.120000
     41 H18          1.7210     0.8630    -1.4860 ha         1 LO4       0.113500
     42 H19          1.4640     2.0720     2.6040 ha         1 LO4       0.113500
     43 H20          3.5560     2.5030    -0.1100 hc         1 LO4       0.055700
     44 H21          3.5670     2.0680     1.5780 hc         1 LO4       0.055700
     45 H22          5.8250    -1.2530    -1.9490 hn         1 LO4       0.349500
     46 H23          4.4970    -1.2860     1.8800 hs         1 LO4       0.308000
@<TRIPOS>BOND
     1     1     3 ar  
     2     1    14 ar  
     3     1    20 1   
     4     2    15 ar  
     5     2    16 ar  
     6     2    17 1   
     7     3    16 ar  
     8     3    24 1   
     9     4    17 1   
    10     4    18 1   
    11     4    23 2   
    12     5    19 1   
    13     5    22 2   
    14     5    23 1   
    15     6     7 1   
    16     6    25 1   
    17     6    26 1   
    18     6    27 1   
    19     7     8 1   
    20     7    12 1   
    21     7    13 1   
    22     8     9 1   
    23     8    28 1   
    24     8    29 1   
    25     9    10 1   
    26     9    30 1   
    27     9    31 1   
    28    10    11 1   
    29    10    32 1   
    30    10    33 1   
    31    11    12 1   
    32    11    34 1   
    33    11    35 1   
    34    12    36 1   
    35    12    37 1   
    36    13    20 1   
    37    13    38 1   
    38    13    39 1   
    39    14    15 ar  
    40    14    40 1   
    41    15    41 1   
    42    16    42 1   
    43    17    43 1   
    44    17    44 1   
    45    18    19 1   
    46    18    21 2   
    47    19    45 1   
    48    23    46 1   
@<TRIPOS>SUBSTRUCTURE
     1 LO4         1 TEMP              0 ****  ****    0 ROOT
