@<TRIPOS>MOLECULE
LO5
   34    36     1     0     0
SMALL
bcc


@<TRIPOS>ATOM
      1 C4          -1.4360     0.2990    -0.3500 ca         1 LO5      -0.087000
      2 C5          -1.1080    -1.0690    -0.3540 ca         1 LO5      -0.089300
      3 C6           0.2970    -1.4860    -0.6980 c3         1 LO5       0.209100
      4 C7           2.6400    -1.0110    -0.3480 c3         1 LO5       0.153800
      5 C8           3.6400    -0.1800     0.4300 c5         1 LO5       0.142100
      6 C10          5.7930     0.8220     0.2740 c5         1 LO5      -0.113400
      7 N            1.2760    -0.7110     0.0370 n7         1 LO5      -0.793200
      8 C           -2.0790    -2.0140    -0.0610 ca         1 LO5      -0.129000
      9 O            3.4790     1.2080     0.1550 os         1 LO5      -0.397600
     10 C1          -3.4040    -1.6580     0.2330 ca         1 LO5      -0.119000
     11 C11          4.7220     1.7860    -0.2120 c5         1 LO5       0.128400
     12 C12         -4.6000     1.6870     0.5150 c5         1 LO5       0.326200
     13 C2          -3.6990    -0.3200     0.2230 ca         1 LO5       0.053100
     14 C3          -2.7330     0.6350    -0.0630 ca         1 LO5       0.045100
     15 C9           5.0910    -0.5170     0.0880 c5         1 LO5      -0.111400
     16 O1          -3.2980     1.8680    -0.0230 os         1 LO5      -0.319900
     17 O2          -4.8870     0.2970     0.4490 os         1 LO5      -0.322900
     18 H1          -0.6860     1.0500    -0.5610 ha         1 LO5       0.171000
     19 H2           0.4000    -2.5720    -0.5480 h1         1 LO5       0.035200
     20 H3           0.4710    -1.3130    -1.7660 h1         1 LO5       0.035200
     21 H4           2.7570    -0.8040    -1.4170 h1         1 LO5       0.033700
     22 H5           2.9010    -2.0730    -0.2070 h1         1 LO5       0.033700
     23 H6           3.4720    -0.3430     1.5050 h1         1 LO5       0.045700
     24 H7           6.7190     0.9060    -0.2930 hc         1 LO5       0.054700
     25 H8           6.0220     0.9960     1.3280 hc         1 LO5       0.054700
     26 H9           1.1620    -0.8970     1.0270 hn         1 LO5       0.355800
     27 H11         -1.8120    -3.0640    -0.0560 ha         1 LO5       0.132000
     28 H12         -4.1510    -2.4070     0.4580 ha         1 LO5       0.150000
     29 H13          4.8030     2.7790     0.2360 h1         1 LO5       0.043700
     30 H14          4.7820     1.9080    -1.3010 h1         1 LO5       0.043700
     31 H15         -4.6210     2.0220     1.5590 h2         1 LO5       0.062700
     32 H16          5.4890    -1.3120     0.7180 hc         1 LO5       0.053200
     33 H17          5.1740    -0.8460    -0.9530 hc         1 LO5       0.053200
     34 H10         -5.3260     2.2430    -0.0770 h2         1 LO5       0.062700
@<TRIPOS>BOND
     1     1     2 ar  
     2     1    14 ar  
     3     1    18 1   
     4     2     3 1   
     5     2     8 ar  
     6     3     7 1   
     7     3    19 1   
     8     3    20 1   
     9     4     5 1   
    10     4     7 1   
    11     4    21 1   
    12     4    22 1   
    13     5     9 1   
    14     5    15 1   
    15     5    23 1   
    16     6    11 1   
    17     6    15 1   
    18     6    24 1   
    19     6    25 1   
    20     7    26 1   
    21     8    10 ar  
    22     8    27 1   
    23     9    11 1   
    24    10    13 ar  
    25    10    28 1   
    26    11    29 1   
    27    11    30 1   
    28    12    16 1   
    29    12    17 1   
    30    12    31 1   
    31    12    34 1   
    32    13    14 ar  
    33    13    17 1   
    34    14    16 1   
    35    15    32 1   
    36    15    33 1   
@<TRIPOS>SUBSTRUCTURE
     1 LO5         1 TEMP              0 ****  ****    0 ROOT
