@<TRIPOS>MOLECULE
LO5
   34    36     1     0     0
SMALL
No Charge or Current Charge


@<TRIPOS>ATOM
      1 C4          -1.6210     0.4500    -0.6220 ca         1 LO5      -0.069000
      2 C5          -1.0950    -0.8560    -0.4900 ca         1 LO5      -0.089300
      3 C6           0.3150    -1.1600    -0.9790 c3         1 LO5       0.209100
      4 C7           2.7260    -0.9140    -0.3820 c3         1 LO5       0.153800
      5 C8           3.7510    -0.3950     0.6780 c5         1 LO5       0.165300
      6 C10          5.8730     0.7470     0.1740 c5         1 LO5      -0.113400
      7 N            1.3110    -0.6540    -0.0200 n7         1 LO5      -0.848400
      8 C           -1.8870    -1.8770     0.0960 ca         1 LO5      -0.111000
      9 O            3.6750     1.0460     0.8130 os         1 LO5      -0.444000
     10 C1          -3.1960    -1.6010     0.5470 ca         1 LO5      -0.101000
     11 C11          4.6250     1.6110    -0.1020 c5         1 LO5       0.151600
     12 C12         -4.8600     1.5750     0.4380 c5         1 LO5       0.372600
     13 C2          -3.6810    -0.2960     0.4000 ca         1 LO5       0.053100
     14 C3          -2.9220     0.6920    -0.1630 ca         1 LO5       0.045100
     15 C9           5.2430    -0.6740     0.2890 c5         1 LO5      -0.111400
     16 O1          -3.5780     1.8790    -0.2210 os         1 LO5      -0.343100
     17 O2          -4.9120     0.1410     0.7680 os         1 LO5      -0.346100
     18 H1          -1.0330     1.2500    -1.0660 ha         1 LO5       0.153000
     19 H2           0.4260    -2.2450    -1.1110 h1         1 LO5       0.035200
     20 H3           0.4600    -0.6940    -1.9630 h1         1 LO5       0.035200
     21 H4           2.9570    -0.4510    -1.3520 h1         1 LO5       0.033700
     22 H5           2.8840    -1.9950    -0.4980 h1         1 LO5       0.033700
     23 H6           3.5070    -0.8470     1.6490 h1         1 LO5       0.045700
     24 H7           6.6210     0.8180    -0.6230 hc         1 LO5       0.054700
     25 H8           6.3560     1.0490     1.1110 hc         1 LO5       0.054700
     26 H9           1.1220    -1.0920     0.8890 hn         1 LO5       0.411000
     27 H11         -1.4870    -2.8840     0.2010 ha         1 LO5       0.114000
     28 H12         -3.8120    -2.3760     0.9940 ha         1 LO5       0.132000
     29 H13          4.7800     2.6760     0.1160 h1         1 LO5       0.043700
     30 H14          4.2590     1.5010    -1.1330 h1         1 LO5       0.043700
     31 H15         -4.9350     2.1590     1.3620 h2         1 LO5       0.062700
     32 H16          5.7540    -1.2860     1.0410 hc         1 LO5       0.053200
     33 H17          5.3150    -1.2170    -0.6610 hc         1 LO5       0.053200
     34 H10         -5.6880     1.8280    -0.2350 h2         1 LO5       0.062700
@<TRIPOS>BOND
     1     1     2 ar  
     2     1    14 ar  
     3     1    18 1   
     4     2     3 1   
     5     2     8 ar  
     6     3     7 1   
     7     3    19 1   
     8     3    20 1   
     9     4     5 1   
    10     4     7 1   
    11     4    21 1   
    12     4    22 1   
    13     5     9 1   
    14     5    15 1   
    15     5    23 1   
    16     6    11 1   
    17     6    15 1   
    18     6    24 1   
    19     6    25 1   
    20     7    26 1   
    21     8    10 ar  
    22     8    27 1   
    23     9    11 1   
    24    10    13 ar  
    25    10    28 1   
    26    11    29 1   
    27    11    30 1   
    28    12    16 1   
    29    12    17 1   
    30    12    31 1   
    31    12    34 1   
    32    13    14 ar  
    33    13    17 1   
    34    14    16 1   
    35    15    32 1   
    36    15    33 1   
@<TRIPOS>SUBSTRUCTURE
     1 LO5         1 TEMP              0 ****  ****    0 ROOT
