@<TRIPOS>MOLECULE
LO6
   30    30     1     0     0
SMALL
abcg2


@<TRIPOS>ATOM
      1 N1          32.7630    33.0300    92.7710 n          1 LO6      -0.395800
      2 C4          33.1060    33.7990    91.5920 c6         1 LO6       0.063000
      3 C5          34.4570    33.3280    91.0550 c6         1 LO6       0.163800
      4 C6          35.6150    33.8720    91.8700 c3         1 LO6      -0.094100
      5 C7          32.5360    33.6380    93.9500 c          1 LO6       0.618100
      6 C8          32.3080    32.7250    95.1470 c3         1 LO6       0.088600
      7 C2          33.3250    31.2270    91.2190 c6         1 LO6       0.163800
      8 C3          32.6980    31.5850    92.5660 c6         1 LO6       0.063000
      9 O1          34.5500    31.9080    91.0690 os         1 LO6      -0.454000
     10 O2          32.5260    34.8500    94.0990 o          1 LO6      -0.588100
     11 O3          33.5870    32.2050    95.5000 os         1 LO6      -0.484000
     12 C9          33.6200    31.4860    96.6410 c3         1 LO6       0.393300
     13 F1          33.0500    30.2650    96.4570 f          1 LO6      -0.119500
     14 F2          34.9160    31.2670    96.9180 f          1 LO6      -0.119500
     15 H1          33.1570    34.8550    91.8430 h1         1 LO6       0.061700
     16 H2          32.3210    33.6870    90.8390 h1         1 LO6       0.061700
     17 H3          34.5450    33.6860    90.0200 h1         1 LO6       0.040700
     18 H4          35.6540    34.9590    91.7960 hc         1 LO6       0.048700
     19 H5          35.5170    33.6030    92.9230 hc         1 LO6       0.048700
     20 H6          36.5650    33.4800    91.5070 hc         1 LO6       0.048700
     21 H7          31.8980    33.3260    95.9630 h1         1 LO6       0.059700
     22 H8          31.5980    31.9240    94.9240 h1         1 LO6       0.059700
     23 H12         32.6300    31.4950    90.4110 h1         1 LO6       0.040700
     24 H13         31.6630    31.2310    92.5870 h1         1 LO6       0.061700
     25 H14         33.2470    31.0640    93.3520 h1         1 LO6       0.061700
     26 H15         33.1280    31.9660    97.4930 h3         1 LO6       0.055700
     27 C1          33.5910    29.7390    91.1330 c3         1 LO6      -0.094100
     28 H9          32.6630    29.1820    91.2660 hc         1 LO6       0.048700
     29 H10         34.0020    29.4740    90.1590 hc         1 LO6       0.048700
     30 H11         34.2930    29.4190    91.9040 hc         1 LO6       0.048700
@<TRIPOS>BOND
     1     1     2 1   
     2     1     5 1   
     3     1     8 1   
     4     2     3 1   
     5     2    15 1   
     6     2    16 1   
     7     3     4 1   
     8     3     9 1   
     9     3    17 1   
    10     4    18 1   
    11     4    19 1   
    12     4    20 1   
    13     5     6 1   
    14     5    10 2   
    15     6    11 1   
    16     6    21 1   
    17     6    22 1   
    18     7     8 1   
    19     7     9 1   
    20     7    23 1   
    21     7    27 1   
    22     8    24 1   
    23     8    25 1   
    24    11    12 1   
    25    12    13 1   
    26    12    14 1   
    27    12    26 1   
    28    27    28 1   
    29    27    29 1   
    30    27    30 1   
@<TRIPOS>SUBSTRUCTURE
     1 LO6         1 TEMP              0 ****  ****    0 ROOT
