@<TRIPOS>MOLECULE
LO6
   30    30     1     0     0
SMALL
No Charge or Current Charge


@<TRIPOS>ATOM
      1 N1          33.1980    33.1380    93.1330 n          1 LO6      -0.395800
      2 C4          33.9650    34.0180    92.1920 c6         1 LO6       0.063000
      3 C5          34.2320    33.4060    90.7900 c6         1 LO6       0.163800
      4 C6          35.2950    34.1980    89.9920 c3         1 LO6      -0.094100
      5 C7          32.6990    33.6800    94.3450 c          1 LO6       0.618100
      6 C8          31.9430    32.7470    95.3310 c3         1 LO6       0.088600
      7 C2          33.7520    31.1910    91.5400 c6         1 LO6       0.163800
      8 C3          33.4470    31.6650    92.9870 c6         1 LO6       0.063000
      9 O1          34.7130    32.0580    90.9150 os         1 LO6      -0.454000
     10 O2          32.8020    34.8820    94.5770 o          1 LO6      -0.588100
     11 O3          32.8270    31.7900    95.9720 os         1 LO6      -0.484000
     12 C9          32.1790    30.8740    96.8710 c3         1 LO6       0.393300
     13 F1          31.3630    30.0340    96.1950 f          1 LO6      -0.119500
     14 F2          33.0990    30.1000    97.4880 f          1 LO6      -0.119500
     15 H1          34.9280    34.2630    92.6620 h1         1 LO6       0.061700
     16 H2          33.4240    34.9660    92.0570 h1         1 LO6       0.061700
     17 H3          33.2960    33.3950    90.2130 h1         1 LO6       0.040700
     18 H4          34.9760    35.2350    89.8380 hc         1 LO6       0.048700
     19 H5          36.2570    34.2160    90.5180 hc         1 LO6       0.048700
     20 H6          35.4570    33.7500    89.0050 hc         1 LO6       0.048700
     21 H7          31.4510    33.3810    96.0790 h1         1 LO6       0.059700
     22 H8          31.1600    32.2350    94.7580 h1         1 LO6       0.059700
     23 H12         32.8250    31.2080    90.9480 h1         1 LO6       0.040700
     24 H13         32.5740    31.1020    93.3450 h1         1 LO6       0.061700
     25 H14         34.2930    31.3950    93.6350 h1         1 LO6       0.061700
     26 H15         31.5980    31.4090    97.6300 h3         1 LO6       0.055700
     27 C1          34.3350    29.7590    91.4980 c3         1 LO6      -0.094100
     28 H9          33.6340    29.0380    91.9370 hc         1 LO6       0.048700
     29 H10         34.5310    29.4440    90.4670 hc         1 LO6       0.048700
     30 H11         35.2760    29.6950    92.0570 hc         1 LO6       0.048700
@<TRIPOS>BOND
     1     1     2 1   
     2     1     5 1   
     3     1     8 1   
     4     2     3 1   
     5     2    15 1   
     6     2    16 1   
     7     3     4 1   
     8     3     9 1   
     9     3    17 1   
    10     4    18 1   
    11     4    19 1   
    12     4    20 1   
    13     5     6 1   
    14     5    10 2   
    15     6    11 1   
    16     6    21 1   
    17     6    22 1   
    18     7     8 1   
    19     7     9 1   
    20     7    23 1   
    21     7    27 1   
    22     8    24 1   
    23     8    25 1   
    24    11    12 1   
    25    12    13 1   
    26    12    14 1   
    27    12    26 1   
    28    27    28 1   
    29    27    29 1   
    30    27    30 1   
@<TRIPOS>SUBSTRUCTURE
     1 LO6         1 TEMP              0 ****  ****    0 ROOT
