@<TRIPOS>MOLECULE
LO7
   44    46     1     0     0
SMALL
No Charge or Current Charge


@<TRIPOS>ATOM
      1 C13          0.1900     1.4690     0.0100 ca         1 LO7       0.151100
      2 C15          1.9250     0.1210     1.0720 ca         1 LO7      -0.060000
      3 C17          2.5170     2.1940    -0.0520 ca         1 LO7      -0.060000
      4 C20          5.2360     0.4010    -0.1800 c5         1 LO7      -0.036700
      5 C21          6.7290     0.2610     0.1970 c          1 LO7       0.574000
      6 C24          6.3150    -1.9600    -0.6230 c          1 LO7       0.593600
      7 C01         -8.6530    -2.8460    -0.4870 c3         1 LO7      -0.088100
      8 C03         -7.0230    -1.0970     0.3820 ca         1 LO7      -0.099300
      9 C04         -5.7200    -1.4440     0.7900 ca         1 LO7       0.333900
     10 C06         -4.7950     0.4710    -0.1870 ca         1 LO7       0.254500
     11 C07         -6.0740     0.8820    -0.6290 ca         1 LO7      -0.097000
     12 C08         -7.2010     0.0930    -0.3440 ca         1 LO7      -0.086000
     13 C09         -3.5730     1.3320    -0.4990 c          1 LO7       0.480600
     14 C14          0.5740     0.3240     0.7420 ca         1 LO7      -0.169000
     15 C16          2.9040     1.0530     0.6770 ca         1 LO7      -0.140300
     16 C18          1.1660     2.3980    -0.3820 ca         1 LO7      -0.169000
     17 C19          4.3710     0.8330     1.0300 c3         1 LO7       0.000900
     18 N05         -4.6310    -0.6870     0.5180 nb         1 LO7      -0.657000
     19 N23          7.1160    -1.0060    -0.0970 ns         1 LO7      -0.483500
     20 O10         -3.6720     2.3840    -1.1310 o          1 LO7      -0.483100
     21 O12         -1.1200     1.7220    -0.3430 os         1 LO7      -0.324100
     22 O25          6.6620    -3.0990    -0.8830 o          1 LO7      -0.465000
     23 S26          4.6690    -1.2560    -0.8420 ss         1 LO7      -0.261600
     24 H1           2.2110    -0.7670     1.6330 ha         1 LO7       0.115000
     25 H2           3.2620     2.9240    -0.3630 ha         1 LO7       0.115000
     26 H3           5.1690     1.1530    -0.9750 h1         1 LO7       0.115700
     27 H4          -9.5050    -3.4790    -0.2140 hc         1 LO7       0.039033
     28 H5          -8.9540    -2.2090    -1.3270 hc         1 LO7       0.039033
     29 H6          -7.8340    -3.4950    -0.8200 hc         1 LO7       0.039033
     30 H7          -9.0590    -1.3770     1.0470 hc         1 LO7       0.052200
     31 H8          -7.9680    -2.6540     1.5540 hc         1 LO7       0.052200
     32 H9          -5.5390    -2.3590     1.3520 h4         1 LO7       0.023100
     33 H10         -6.1920     1.8060    -1.1900 ha         1 LO7       0.146000
     34 H11         -8.1890     0.4000    -0.6800 ha         1 LO7       0.125000
     35 H12         -2.2760     0.7220     1.1010 h1         1 LO7       0.070200
     36 H13         -2.0380    -0.1680    -0.4190 h1         1 LO7       0.070200
     37 H14         -0.1560    -0.4140     1.0600 ha         1 LO7       0.128000
     38 H15          0.8740     3.2800    -0.9450 ha         1 LO7       0.128000
     39 H16          4.4600     0.0850     1.8290 hc         1 LO7       0.067700
     40 H17          4.7770     1.7600     1.4540 hc         1 LO7       0.067700
     41 H18          8.0750    -1.2570     0.0920 hn         1 LO7       0.351500
     42 O22          7.4720     1.0980     0.6830 o          1 LO7      -0.486000
     43 C11         -2.2020     0.8280     0.0110 c3         1 LO7       0.068600
     44 C02         -8.2120    -1.9900     0.7150 c3         1 LO7      -0.034100
@<TRIPOS>BOND
     1     1    14 ar  
     2     1    16 ar  
     3     1    21 1   
     4     2    14 ar  
     5     2    15 ar  
     6     2    24 1   
     7     3    15 ar  
     8     3    16 ar  
     9     3    25 1   
    10     4     5 1   
    11     4    17 1   
    12     4    23 1   
    13     4    26 1   
    14     5    19 1   
    15     5    42 2   
    16     6    19 1   
    17     6    22 2   
    18     6    23 1   
    19     7    27 1   
    20     7    28 1   
    21     7    29 1   
    22     7    44 1   
    23     8     9 ar  
    24     8    12 ar  
    25     8    44 1   
    26     9    18 ar  
    27     9    32 1   
    28    10    11 ar  
    29    10    13 1   
    30    10    18 ar  
    31    11    12 ar  
    32    11    33 1   
    33    12    34 1   
    34    13    20 2   
    35    13    43 1   
    36    14    37 1   
    37    15    17 1   
    38    16    38 1   
    39    17    39 1   
    40    17    40 1   
    41    19    41 1   
    42    21    43 1   
    43    30    44 1   
    44    31    44 1   
    45    35    43 1   
    46    36    43 1   
@<TRIPOS>SUBSTRUCTURE
     1 LO7         1 TEMP              0 ****  ****    0 ROOT
