@<TRIPOS>MOLECULE
LO7
   44    46     1     0     0
SMALL
bcc


@<TRIPOS>ATOM
      1 C13          0.0870     1.5210     0.1380 ca         1 LO7       0.151100
      2 C15          1.8190     0.1920     1.1440 ca         1 LO7      -0.078000
      3 C17          2.3870     2.2260     0.0350 ca         1 LO7      -0.078000
      4 C20          4.9800     0.3310    -0.2100 c5         1 LO7      -0.084600
      5 C21          6.4480     0.0690     0.0680 c          1 LO7       0.716500
      6 C24          5.8280    -2.0700    -0.7140 c          1 LO7       0.736100
      7 C01         -8.0460    -3.0590    -0.4630 c3         1 LO7      -0.088100
      8 C03         -6.8570    -1.0070     0.3280 ca         1 LO7      -0.164600
      9 C04         -5.5690    -1.2740     0.7960 ca         1 LO7       0.399200
     10 C06         -4.7020     0.5960    -0.1750 ca         1 LO7       0.319800
     11 C07         -5.9400     0.9650    -0.6860 ca         1 LO7      -0.180300
     12 C08         -7.0260     0.1460    -0.4290 ca         1 LO7      -0.104000
     13 C09         -3.4960     1.4310    -0.4260 c          1 LO7       0.480600
     14 C14          0.4740     0.3910     0.8500 ca         1 LO7      -0.187000
     15 C16          2.7940     1.0960     0.7460 ca         1 LO7      -0.140300
     16 C18          1.0570     2.4420    -0.2670 ca         1 LO7      -0.187000
     17 C19          4.2480     0.8480     1.0300 c3         1 LO7       0.000900
     18 N05         -4.5240    -0.5030     0.5540 nb         1 LO7      -0.657000
     19 N23          6.7940    -1.2180    -0.2360 ns         1 LO7      -0.617500
     20 O10         -3.5560     2.4620    -1.0510 o          1 LO7      -0.483100
     21 O12         -1.1850     1.8140    -0.2030 os         1 LO7      -0.300900
     22 O25          5.9990    -3.2200    -1.0130 o          1 LO7      -0.540500
     23 S26          4.2790    -1.2320    -0.8200 ss         1 LO7      -0.213700
     24 H1           2.1050    -0.6930     1.6990 ha         1 LO7       0.133000
     25 H2           3.1230     2.9540    -0.2870 ha         1 LO7       0.133000
     26 H3           4.9210     1.0710    -1.0130 h1         1 LO7       0.115700
     27 H4          -8.8820    -3.7320    -0.2700 hc         1 LO7       0.039033
     28 H5          -8.1750    -2.6420    -1.4620 hc         1 LO7       0.039033
     29 H6          -7.1310    -3.6530    -0.4640 hc         1 LO7       0.039033
     30 H7          -8.9280    -1.4070     0.6060 hc         1 LO7       0.052200
     31 H8          -7.8670    -2.4040     1.5820 hc         1 LO7       0.052200
     32 H9          -5.3880    -2.1580     1.3990 h4         1 LO7       0.023100
     33 H10         -6.0510     1.8680    -1.2710 ha         1 LO7       0.164000
     34 H11         -8.0050     0.4060    -0.8130 ha         1 LO7       0.143000
     35 H12         -2.2950     0.7850     1.2240 h1         1 LO7       0.070200
     36 H13         -2.0080    -0.0930    -0.2730 h1         1 LO7       0.070200
     37 H14         -0.2450    -0.3430     1.1860 ha         1 LO7       0.146000
     38 H15          0.7560     3.3250    -0.8160 ha         1 LO7       0.146000
     39 H16          4.3580     0.1280     1.8430 hc         1 LO7       0.067700
     40 H17          4.7380     1.7730     1.3410 hc         1 LO7       0.067700
     41 H18          7.7430    -1.5500    -0.1070 hn         1 LO7       0.351500
     42 O22          7.2060     0.8950     0.5090 o          1 LO7      -0.561500
     43 C11         -2.1950     0.9060     0.1390 c3         1 LO7       0.045400
     44 C02         -7.9850    -1.9560     0.5930 c3         1 LO7      -0.034100
@<TRIPOS>BOND
     1     1    14 ar  
     2     1    16 ar  
     3     1    21 1   
     4     2    14 ar  
     5     2    15 ar  
     6     2    24 1   
     7     3    15 ar  
     8     3    16 ar  
     9     3    25 1   
    10     4     5 1   
    11     4    17 1   
    12     4    23 1   
    13     4    26 1   
    14     5    19 1   
    15     5    42 2   
    16     6    19 1   
    17     6    22 2   
    18     6    23 1   
    19     7    27 1   
    20     7    28 1   
    21     7    29 1   
    22     7    44 1   
    23     8     9 ar  
    24     8    12 ar  
    25     8    44 1   
    26     9    18 ar  
    27     9    32 1   
    28    10    11 ar  
    29    10    13 1   
    30    10    18 ar  
    31    11    12 ar  
    32    11    33 1   
    33    12    34 1   
    34    13    20 2   
    35    13    43 1   
    36    14    37 1   
    37    15    17 1   
    38    16    38 1   
    39    17    39 1   
    40    17    40 1   
    41    19    41 1   
    42    21    43 1   
    43    30    44 1   
    44    31    44 1   
    45    35    43 1   
    46    36    43 1   
@<TRIPOS>SUBSTRUCTURE
     1 LO7         1 TEMP              0 ****  ****    0 ROOT
