@<TRIPOS>MOLECULE
LO8
   44    46     1     0     0
SMALL
No Charge or Current Charge


@<TRIPOS>ATOM
      1 N1           1.2590    -3.3890    -0.8190 n7         1 LO8      -0.870400
      2 C4           0.5730    -2.7360    -1.9770 c6         1 LO8       0.151800
      3 C5           1.7020     0.9260    -1.4030 cy         1 LO8       0.104500
      4 C6           1.4450     2.0630    -0.3570 cy         1 LO8       0.144100
      5 C7           0.8510     1.8600    -2.3250 cy         1 LO8       0.144100
      6 C8          -0.1890    -2.3100     1.0210 c          1 LO8       0.617100
      7 C10         -2.2740     0.8210     1.0500 ca         1 LO8      -0.109300
      8 C13         -2.6080     3.5490     0.4220 ca         1 LO8      -0.105000
      9 C15         -2.1880     1.7970     2.0620 ca         1 LO8      -0.096500
     10 N            1.1800    -0.4360    -1.1040 n3         1 LO8      -0.694600
     11 C            2.1600    -3.1830     1.4740 c3         1 LO8      -0.091100
     12 O            1.3150     2.9890    -1.4980 oq         1 LO8      -0.445000
     13 C1           1.2660    -2.4950     0.4010 c6         1 LO8       0.102200
     14 C11         -2.5240     1.2190    -0.2780 ca         1 LO8      -0.096500
     15 C12         -2.6910     2.5790    -0.5910 ca         1 LO8      -0.114000
     16 C14         -2.3560     3.1580     1.7480 ca         1 LO8      -0.114000
     17 C2           1.9070    -1.1050     0.0180 c6         1 LO8       0.145800
     18 C3           1.1600    -1.3250    -2.3030 c6         1 LO8       0.126800
     19 C9          -2.0540    -0.6480     1.3750 c3         1 LO8       0.150300
     20 N2          -0.7410    -1.0560     0.9030 ns         1 LO8      -0.496900
     21 O1          -0.8010    -3.2150     1.5810 o          1 LO8      -0.614100
     22 H1           2.2350    -3.5590    -1.0930 hn         1 LO8       0.415000
     23 H3           0.6540    -3.3780    -2.8680 h1         1 LO8       0.062200
     24 H4          -0.4990    -2.6280    -1.7550 h1         1 LO8       0.062200
     25 H5           2.7520     0.8960    -1.7190 h1         1 LO8       0.038700
     26 H6           0.5060     1.9720     0.2020 h1         1 LO8       0.058950
     27 H7           2.2890     2.3080     0.2970 h1         1 LO8       0.058950
     28 H8           1.1810     1.9290    -3.3670 h1         1 LO8       0.058950
     29 H9          -0.2340     1.7160    -2.2480 h1         1 LO8       0.058950
     30 H10         -2.7350     4.6020     0.1800 ha         1 LO8       0.112000
     31 H11         -1.9840     1.5050     3.0900 ha         1 LO8       0.116000
     32 H13          1.7800    -4.1770     1.7370 hc         1 LO8       0.048367
     33 H14          3.1910    -3.3090     1.1200 hc         1 LO8       0.048367
     34 H15          2.1990    -2.5900     2.3960 hc         1 LO8       0.048367
     35 H16         -2.5810     0.4740    -1.0690 ha         1 LO8       0.116000
     36 H17         -2.8820     2.8810    -1.6180 ha         1 LO8       0.113000
     37 H18         -2.2880     3.9080     2.5320 ha         1 LO8       0.113000
     38 H19          2.9590    -1.2610    -0.2650 h1         1 LO8       0.049200
     39 H20          1.9170    -0.4600     0.9090 h1         1 LO8       0.049200
     40 H21          2.1800    -1.4480    -2.6960 h1         1 LO8       0.036700
     41 H22          0.5590    -0.8730    -3.1050 h1         1 LO8       0.036700
     42 H23         -2.1180    -0.8160     2.4580 h1         1 LO8       0.059200
     43 H24         -2.8210    -1.2600     0.8820 h1         1 LO8       0.059200
     44 H25         -0.2160    -0.4130     0.3150 hn         1 LO8       0.339500
@<TRIPOS>BOND
     1     1     2 1   
     2     1    13 1   
     3     1    22 1   
     4     2    18 1   
     5     2    23 1   
     6     2    24 1   
     7     3     4 1   
     8     3     5 1   
     9     3    10 1   
    10     3    25 1   
    11     4    12 1   
    12     4    26 1   
    13     4    27 1   
    14     5    12 1   
    15     5    28 1   
    16     5    29 1   
    17     6    13 1   
    18     6    20 1   
    19     6    21 2   
    20     7     9 ar  
    21     7    14 ar  
    22     7    19 1   
    23     8    15 ar  
    24     8    16 ar  
    25     8    30 1   
    26     9    16 ar  
    27     9    31 1   
    28    10    17 1   
    29    10    18 1   
    30    11    13 1   
    31    11    32 1   
    32    11    33 1   
    33    11    34 1   
    34    13    17 1   
    35    14    15 ar  
    36    14    35 1   
    37    15    36 1   
    38    16    37 1   
    39    17    38 1   
    40    17    39 1   
    41    18    40 1   
    42    18    41 1   
    43    19    20 1   
    44    19    42 1   
    45    19    43 1   
    46    20    44 1   
@<TRIPOS>SUBSTRUCTURE
     1 LO8         1 TEMP              0 ****  ****    0 ROOT
