@<TRIPOS>MOLECULE
LO8
   44    46     1     0     0
SMALL
bcc


@<TRIPOS>ATOM
      1 N1           0.3580    -1.7340    -1.2910 n7         1 LO8      -0.815200
      2 C4           0.5120    -0.4400    -1.9450 c6         1 LO8       0.151800
      3 C5           3.6760     0.7560    -0.3940 cy         1 LO8       0.104500
      4 C6           4.0800     1.1390     1.0340 cy         1 LO8       0.120900
      5 C7           3.7120     2.2670    -0.6450 cy         1 LO8       0.120900
      6 C8           0.1030    -1.0560     1.0540 c          1 LO8       0.684100
      7 C10         -3.2680     0.2850     0.7040 ca         1 LO8      -0.109300
      8 C13         -5.2350     1.4390    -0.9070 ca         1 LO8      -0.123000
      9 C15         -2.9610     1.3630    -0.1240 ca         1 LO8      -0.114500
     10 N            2.3810     0.1380    -0.5220 n3         1 LO8      -0.694600
     11 C            1.0370    -3.2630     0.4660 c3         1 LO8      -0.091100
     12 O            4.1040     2.5330     0.7060 oq         1 LO8      -0.398600
     13 C1           0.9770    -1.7990     0.0290 c6         1 LO8       0.102200
     14 C11         -4.5680    -0.2060     0.7160 ca         1 LO8      -0.114500
     15 C12         -5.5510     0.3700    -0.0820 ca         1 LO8      -0.132000
     16 C14         -3.9370     1.9390    -0.9220 ca         1 LO8      -0.132000
     17 C2           2.3840    -1.2020     0.0350 c6         1 LO8       0.145800
     18 C3           1.9320     0.0970    -1.9020 c6         1 LO8       0.126800
     19 C9          -2.1990    -0.3490     1.5520 c3         1 LO8       0.150300
     20 N2          -1.1870    -0.9580     0.7180 ns         1 LO8      -0.563900
     21 O1           0.5590    -0.6510     2.1160 o          1 LO8      -0.614100
     22 H1           0.7680    -2.4530    -1.8760 hn         1 LO8       0.359800
     23 H3           0.1740    -0.5370    -2.9770 h1         1 LO8       0.062200
     24 H4          -0.1490     0.2830    -1.4600 h1         1 LO8       0.062200
     25 H5           4.4590     0.2010    -0.9350 h1         1 LO8       0.038700
     26 H6           3.3330     0.9020     1.7990 h1         1 LO8       0.058950
     27 H7           5.0560     0.7700     1.3580 h1         1 LO8       0.058950
     28 H8           4.4550     2.6050    -1.3710 h1         1 LO8       0.058950
     29 H9           2.7440     2.7140    -0.8920 h1         1 LO8       0.058950
     30 H10         -5.9970     1.8860    -1.5330 ha         1 LO8       0.130000
     31 H11         -1.9510     1.7580    -0.1460 ha         1 LO8       0.134000
     32 H13          0.0420    -3.7080     0.4630 hc         1 LO8       0.048367
     33 H14          1.6690    -3.8340    -0.2160 hc         1 LO8       0.048367
     34 H15          1.4530    -3.3580     1.4680 hc         1 LO8       0.048367
     35 H16         -4.8140    -1.0460     1.3550 ha         1 LO8       0.134000
     36 H17         -6.5590    -0.0240    -0.0600 ha         1 LO8       0.131000
     37 H18         -3.6890     2.7780    -1.5590 ha         1 LO8       0.131000
     38 H19          3.0470    -1.8730    -0.5410 h1         1 LO8       0.049200
     39 H20          2.7640    -1.1710     1.0560 h1         1 LO8       0.049200
     40 H21          2.5930    -0.5310    -2.5260 h1         1 LO8       0.036700
     41 H22          1.9460     1.1030    -2.3270 h1         1 LO8       0.036700
     42 H23         -1.7160     0.4010     2.1810 h1         1 LO8       0.059200
     43 H24         -2.6460    -1.0860     2.2260 h1         1 LO8       0.059200
     44 H25         -1.4560    -1.3650    -0.1670 hn         1 LO8       0.339500
@<TRIPOS>BOND
     1     1     2 1   
     2     1    13 1   
     3     1    22 1   
     4     2    18 1   
     5     2    23 1   
     6     2    24 1   
     7     3     4 1   
     8     3     5 1   
     9     3    10 1   
    10     3    25 1   
    11     4    12 1   
    12     4    26 1   
    13     4    27 1   
    14     5    12 1   
    15     5    28 1   
    16     5    29 1   
    17     6    13 1   
    18     6    20 1   
    19     6    21 2   
    20     7     9 ar  
    21     7    14 ar  
    22     7    19 1   
    23     8    15 ar  
    24     8    16 ar  
    25     8    30 1   
    26     9    16 ar  
    27     9    31 1   
    28    10    17 1   
    29    10    18 1   
    30    11    13 1   
    31    11    32 1   
    32    11    33 1   
    33    11    34 1   
    34    13    17 1   
    35    14    15 ar  
    36    14    35 1   
    37    15    36 1   
    38    16    37 1   
    39    17    38 1   
    40    17    39 1   
    41    18    40 1   
    42    18    41 1   
    43    19    20 1   
    44    19    42 1   
    45    19    43 1   
    46    20    44 1   
@<TRIPOS>SUBSTRUCTURE
     1 LO8         1 TEMP              0 ****  ****    0 ROOT
