@<TRIPOS>MOLECULE
LO9
   39    42     1     0     0
SMALL
No Charge or Current Charge


@<TRIPOS>ATOM
      1 C4          17.4320    63.5710    47.5030 ca         1 LO9       0.130100
      2 C14         17.9670    64.6060    41.6990 ca         1 LO9      -0.048300
      3 C6          17.1980    61.1520    47.6410 ca         1 LO9      -0.061000
      4 C7          17.6390    61.0400    46.2970 ca         1 LO9      -0.091000
      5 C8          17.9660    62.2230    45.5990 ca         1 LO9      -0.079000
      6 C9          17.8670    63.4640    46.1800 ca         1 LO9      -0.107000
      7 C10         18.4310    62.4240    44.2470 cc         1 LO9      -0.215100
      8 C12         18.2680    64.4480    45.2050 cc         1 LO9      -0.190100
      9 N1          16.7890    64.2470    49.5730 nc         1 LO9      -0.317700
     10 C3          17.1110    62.4470    48.2010 ca         1 LO9      -0.270900
     11 C15         18.3150    64.5840    40.3360 ca         1 LO9      -0.195000
     12 C16         17.3420    64.7510    39.3400 ca         1 LO9       0.180100
     13 C17         15.9960    64.9460    39.7060 ca         1 LO9      -0.229000
     14 C18         15.6320    64.9770    41.0590 ca         1 LO9       0.180100
     15 C19         16.6180    64.8100    42.0560 ca         1 LO9      -0.195000
     16 C2          16.7100    62.9100    49.5010 cd         1 LO9       0.385800
     17 C22         13.8130    65.2100    42.7120 c3         1 LO9       0.146400
     18 C23         16.8400    64.8750    36.9260 c3         1 LO9       0.146400
     19 N11         18.6130    63.7960    44.0110 na         1 LO9      -0.024800
     20 O20         17.7560    64.7150    38.0240 os         1 LO9      -0.339600
     21 O21         14.3000    65.1730    41.3580 os         1 LO9      -0.339600
     22 O5          17.2670    64.7020    48.2550 os         1 LO9      -0.110100
     23 H1          16.9350    60.2680    48.2190 ha         1 LO9       0.117000
     24 H2          17.7230    60.0680    45.8170 ha         1 LO9       0.115000
     25 H3          18.6300    61.7100    43.4550 h4         1 LO9       0.226000
     26 H4          18.3250    65.5300    45.2720 h4         1 LO9       0.228000
     27 H5          19.8680    63.8090    42.3390 h1         1 LO9       0.072200
     28 H6          19.4890    65.4060    42.9930 h1         1 LO9       0.072200
     29 H7          19.3510    64.4350    40.0410 ha         1 LO9       0.128500
     30 H8          15.2200    65.0780    38.9600 ha         1 LO9       0.135000
     31 H9          16.3460    64.8380    43.1060 ha         1 LO9       0.128500
     32 H10         16.3770    62.3520    50.3670 h4         1 LO9       0.050800
     33 H11         12.7280    65.3710    42.7210 h1         1 LO9       0.044367
     34 H12         14.0200    64.2630    43.2270 h1         1 LO9       0.044367
     35 H13         14.2830    66.0270    43.2740 h1         1 LO9       0.044367
     36 H14         17.3760    64.8140    35.9710 h1         1 LO9       0.044367
     37 H15         16.0750    64.0880    36.9380 h1         1 LO9       0.044367
     38 H16         16.3410    65.8520    36.9730 h1         1 LO9       0.044367
     39 C13         19.0600    64.4240    42.7550 c3         1 LO9       0.105900
@<TRIPOS>BOND
     1     1     6 ar  
     2     1    10 ar  
     3     1    22 1   
     4     2    11 ar  
     5     2    15 ar  
     6     2    39 1   
     7     3     4 ar  
     8     3    10 ar  
     9     3    23 1   
    10     4     5 ar  
    11     4    24 1   
    12     5     6 ar  
    13     5     7 2   
    14     6     8 2   
    15     7    19 1   
    16     7    25 1   
    17     8    19 1   
    18     8    26 1   
    19     9    16 2   
    20     9    22 1   
    21    10    16 1   
    22    11    12 ar  
    23    11    29 1   
    24    12    13 ar  
    25    12    20 1   
    26    13    14 ar  
    27    13    30 1   
    28    14    15 ar  
    29    14    21 1   
    30    15    31 1   
    31    16    32 1   
    32    17    21 1   
    33    17    33 1   
    34    17    34 1   
    35    17    35 1   
    36    18    20 1   
    37    18    36 1   
    38    18    37 1   
    39    18    38 1   
    40    19    39 1   
    41    27    39 1   
    42    28    39 1   
@<TRIPOS>SUBSTRUCTURE
     1 LO9         1 TEMP              0 ****  ****    0 ROOT
