@<TRIPOS>MOLECULE
LO9
   39    42     1     0     0
SMALL
abcg2


@<TRIPOS>ATOM
      1 C4          17.3960    63.4110    47.4130 ca         1 LO9       0.130100
      2 C14         17.9240    64.8190    41.8400 ca         1 LO9      -0.048300
      3 C6          17.2800    60.9770    47.1910 ca         1 LO9      -0.061000
      4 C7          17.7310    61.0660    45.9110 ca         1 LO9      -0.091000
      5 C8          18.0260    62.3450    45.3430 ca         1 LO9      -0.079000
      6 C9          17.8640    63.5620    46.0940 ca         1 LO9      -0.107000
      7 C10         18.4800    62.7230    44.0930 cc         1 LO9      -0.215100
      8 C12         18.2250    64.6120    45.2720 cc         1 LO9      -0.190100
      9 N1          16.7030    63.7840    49.4700 nc         1 LO9      -0.317700
     10 C3          17.1110    62.1760    47.9470 ca         1 LO9      -0.270900
     11 C15         18.2800    64.4980    40.5470 ca         1 LO9      -0.195000
     12 C16         17.3070    64.4970    39.5390 ca         1 LO9       0.180100
     13 C17         15.9920    64.8050    39.8450 ca         1 LO9      -0.229000
     14 C18         15.6430    65.1230    41.1630 ca         1 LO9       0.180100
     15 C19         16.6040    65.1370    42.1640 ca         1 LO9      -0.195000
     16 C2          16.6760    62.5040    49.2580 cd         1 LO9       0.385800
     17 C22         13.9170    65.7550    42.6610 c3         1 LO9       0.146400
     18 C23         16.8030    64.1510    37.2480 c3         1 LO9       0.146400
     19 N11         18.5930    64.0760    44.0830 na         1 LO9      -0.024800
     20 O20         17.7380    64.1790    38.3060 os         1 LO9      -0.339600
     21 O21         14.3430    65.4040    41.3610 os         1 LO9      -0.339600
     22 O5          17.1560    64.3680    48.3100 os         1 LO9      -0.110100
     23 H1          17.0490    60.0180    47.6350 ha         1 LO9       0.117000
     24 H2          17.8670    60.1730    45.3140 ha         1 LO9       0.115000
     25 H3          18.7230    62.1350    43.2230 h4         1 LO9       0.226000
     26 H4          18.2490    65.6750    45.4430 h4         1 LO9       0.228000
     27 H5          19.9250    64.4640    42.5360 h1         1 LO9       0.072200
     28 H6          19.1580    65.8730    43.2480 h1         1 LO9       0.072200
     29 H7          19.3050    64.2440    40.3020 ha         1 LO9       0.128500
     30 H8          15.2130    64.8070    39.0930 ha         1 LO9       0.135000
     31 H9          16.3490    65.3850    43.1860 ha         1 LO9       0.128500
     32 H10         16.3470    61.8430    50.0470 h4         1 LO9       0.050800
     33 H11         12.8480    65.9450    42.5950 h1         1 LO9       0.044367
     34 H12         14.0870    64.9490    43.3800 h1         1 LO9       0.044367
     35 H13         14.4130    66.6590    43.0230 h1         1 LO9       0.044367
     36 H14         17.3560    63.8710    36.3540 h1         1 LO9       0.044367
     37 H15         16.0140    63.4130    37.4180 h1         1 LO9       0.044367
     38 H16         16.3410    65.1280    37.0840 h1         1 LO9       0.044367
     39 C13         18.9790    64.8500    42.9170 c3         1 LO9       0.105900
@<TRIPOS>BOND
     1     1     6 ar  
     2     1    10 ar  
     3     1    22 1   
     4     2    11 ar  
     5     2    15 ar  
     6     2    39 1   
     7     3     4 ar  
     8     3    10 ar  
     9     3    23 1   
    10     4     5 ar  
    11     4    24 1   
    12     5     6 ar  
    13     5     7 2   
    14     6     8 2   
    15     7    19 1   
    16     7    25 1   
    17     8    19 1   
    18     8    26 1   
    19     9    16 2   
    20     9    22 1   
    21    10    16 1   
    22    11    12 ar  
    23    11    29 1   
    24    12    13 ar  
    25    12    20 1   
    26    13    14 ar  
    27    13    30 1   
    28    14    15 ar  
    29    14    21 1   
    30    15    31 1   
    31    16    32 1   
    32    17    21 1   
    33    17    33 1   
    34    17    34 1   
    35    17    35 1   
    36    18    20 1   
    37    18    36 1   
    38    18    37 1   
    39    18    38 1   
    40    19    39 1   
    41    27    39 1   
    42    28    39 1   
@<TRIPOS>SUBSTRUCTURE
     1 LO9         1 TEMP              0 ****  ****    0 ROOT
