@<TRIPOS>MOLECULE
LOA
   71    74     1     0     0
SMALL
abcg2


@<TRIPOS>ATOM
      1 C1          -3.5970    -0.3920     1.8620 c6         1 LOA      -0.068400
      2 C2          -4.0860     0.8470     1.1220 c6         1 LOA      -0.096400
      3 C3          -4.8980     0.4100    -0.0850 c6         1 LOA       0.178300
      4 O3          -5.3090     1.5430    -0.8760 os         1 LOA      -0.450100
      5 C4          -4.0800    -0.4840    -0.9960 c6         1 LOA      -0.077400
      6 C5          -3.5330    -1.7120    -0.2560 c6         1 LOA      -0.046700
      7 C6          -2.7180    -2.5870    -1.2070 c6         1 LOA      -0.068400
      8 C7          -1.3870    -1.9480    -1.5840 c6         1 LOA      -0.072400
      9 C8          -0.5700    -1.5760    -0.3510 c6         1 LOA      -0.043700
     10 C9          -1.3870    -0.6790     0.6000 c6         1 LOA      -0.045700
     11 C10         -2.7290    -1.3390     1.0160 c6         1 LOA      -0.032000
     12 C11         -0.5410    -0.1940     1.7820 c6         1 LOA      -0.070400
     13 C12          0.7840     0.4480     1.3590 c6         1 LOA      -0.062400
     14 C13          1.6110    -0.4780     0.4670 c5         1 LOA      -0.038000
     15 C14          0.7140    -0.8520    -0.7270 c5         1 LOA      -0.067700
     16 C15          1.6630    -1.5220    -1.7140 c5         1 LOA      -0.073400
     17 C16          2.9900    -0.7620    -1.5160 c5         1 LOA      -0.076400
     18 C17          2.8070     0.1630    -0.2820 c5         1 LOA      -0.047700
     19 C18          2.0760    -1.7100     1.2510 c3         1 LOA      -0.075100
     20 C19         -2.4950    -2.5940     1.8640 c3         1 LOA      -0.082100
     21 C20          4.1250     0.4080     0.4690 c3         1 LOA      -0.057700
     22 C21          3.9410     1.2620     1.7210 c3         1 LOA      -0.080100
     23 C22          5.1510     1.0490    -0.4780 c3         1 LOA      -0.056400
     24 C23          6.5530     1.1760     0.0980 c3         1 LOA      -0.205400
     25 C24          7.6390     1.6640    -0.8780 c          1 LOA       0.716000
     26 C25         -6.6840     3.3490    -1.4810 c3         1 LOA      -0.157100
     27 C26         -6.4020     2.2130    -0.5400 c          1 LOA       0.598100
     28 OT1          7.2910     1.9960    -2.0290 o          1 LOA      -0.743500
     29 OT2          8.8030     1.6980    -0.4230 o          1 LOA      -0.743500
     30 O25         -7.0980     1.9410     0.4090 o          1 LOA      -0.503000
     31 H1          -3.0680    -0.0980     2.7710 hc         1 LOA       0.040700
     32 H2          -4.4730    -0.9560     2.2040 hc         1 LOA       0.040700
     33 H3          -4.6920     1.4600     1.7930 hc         1 LOA       0.056200
     34 H4          -3.2430     1.4630     0.7960 hc         1 LOA       0.056200
     35 H5          -5.7870    -0.1310     0.2550 h1         1 LOA       0.058700
     36 H6          -4.6980    -0.8260    -1.8310 hc         1 LOA       0.053200
     37 H7          -3.2670     0.1030    -1.4330 hc         1 LOA       0.053200
     38 H8          -4.4030    -2.2950     0.0750 hc         1 LOA       0.038700
     39 H9          -2.5270    -3.5570    -0.7400 hc         1 LOA       0.036200
     40 H10         -3.3050    -2.7970    -2.1060 hc         1 LOA       0.036200
     41 H11         -0.8180    -2.6370    -2.2150 hc         1 LOA       0.040200
     42 H12         -1.5530    -1.0520    -2.1940 hc         1 LOA       0.040200
     43 H13         -0.3030    -2.5090     0.1630 hc         1 LOA       0.048700
     44 H14         -1.6330     0.2220     0.0190 hc         1 LOA       0.045700
     45 H15         -1.1010     0.5460     2.3590 hc         1 LOA       0.032700
     46 H16         -0.3430    -1.0180     2.4740 hc         1 LOA       0.032700
     47 H17          0.5750     1.3700     0.8020 hc         1 LOA       0.041700
     48 H18          1.3270     0.7490     2.2560 hc         1 LOA       0.041700
     49 H19          0.4120     0.1040    -1.1830 hc         1 LOA       0.042700
     50 H20          1.7770    -2.5860    -1.4870 hc         1 LOA       0.031700
     51 H21          1.3010    -1.4620    -2.7410 hc         1 LOA       0.031700
     52 H22          3.8170    -1.4590    -1.3520 hc         1 LOA       0.051700
     53 H23          3.2520    -0.1860    -2.4040 hc         1 LOA       0.051700
     54 H24          2.4560     1.1430    -0.6390 hc         1 LOA       0.042700
     55 H25          1.2450    -2.2560     1.6960 hc         1 LOA       0.029367
     56 H26          2.6240    -2.4170     0.6260 hc         1 LOA       0.029367
     57 H27          2.7390    -1.4260     2.0700 hc         1 LOA       0.029367
     58 H28         -3.4480    -3.0710     2.1010 hc         1 LOA       0.032367
     59 H29         -1.8690    -3.3370     1.3710 hc         1 LOA       0.032367
     60 H30         -2.0190    -2.3450     2.8130 hc         1 LOA       0.032367
     61 H31          4.5300    -0.5650     0.7760 hc         1 LOA       0.036700
     62 H32          3.4530     2.2090     1.4800 hc         1 LOA       0.024033
     63 H33          3.3380     0.7610     2.4780 hc         1 LOA       0.024033
     64 H34          4.8980     1.4950     2.1890 hc         1 LOA       0.024033
     65 H35          5.2120     0.4540    -1.3920 hc         1 LOA       0.040200
     66 H36          4.7800     2.0330    -0.7860 hc         1 LOA       0.040200
     67 H37          6.5610     1.8550     0.9570 hc         1 LOA       0.015700
     68 H38          6.8690     0.2060     0.5020 hc         1 LOA       0.015700
     69 H39         -5.9480     3.4380    -2.2740 hc         1 LOA       0.066700
     70 H40         -7.6700     3.2110    -1.9260 hc         1 LOA       0.066700
     71 H41         -6.7150     4.2830    -0.9190 hc         1 LOA       0.066700
@<TRIPOS>BOND
     1     1     2 1   
     2     1    11 1   
     3     1    31 1   
     4     1    32 1   
     5     2     3 1   
     6     2    33 1   
     7     2    34 1   
     8     3     4 1   
     9     3     5 1   
    10     3    35 1   
    11     4    27 1   
    12     5     6 1   
    13     5    36 1   
    14     5    37 1   
    15     6     7 1   
    16     6    11 1   
    17     6    38 1   
    18     7     8 1   
    19     7    39 1   
    20     7    40 1   
    21     8     9 1   
    22     8    41 1   
    23     8    42 1   
    24     9    10 1   
    25     9    15 1   
    26     9    43 1   
    27    10    11 1   
    28    10    12 1   
    29    10    44 1   
    30    11    20 1   
    31    12    13 1   
    32    12    45 1   
    33    12    46 1   
    34    13    14 1   
    35    13    47 1   
    36    13    48 1   
    37    14    15 1   
    38    14    18 1   
    39    14    19 1   
    40    15    16 1   
    41    15    49 1   
    42    16    17 1   
    43    16    50 1   
    44    16    51 1   
    45    17    18 1   
    46    17    52 1   
    47    17    53 1   
    48    18    21 1   
    49    18    54 1   
    50    19    55 1   
    51    19    56 1   
    52    19    57 1   
    53    20    58 1   
    54    20    59 1   
    55    20    60 1   
    56    21    22 1   
    57    21    23 1   
    58    21    61 1   
    59    22    62 1   
    60    22    63 1   
    61    22    64 1   
    62    23    24 1   
    63    23    65 1   
    64    23    66 1   
    65    24    25 1   
    66    24    67 1   
    67    24    68 1   
    68    25    28 1   
    69    25    29 1   
    70    26    27 1   
    71    26    69 1   
    72    26    70 1   
    73    26    71 1   
    74    27    30 2   
@<TRIPOS>SUBSTRUCTURE
     1 LOA         1 TEMP              0 ****  ****    0 ROOT
