@<TRIPOS>MOLECULE
LOA
   71    74     1     0     0
SMALL
No Charge or Current Charge


@<TRIPOS>ATOM
      1 C1          -3.7140    -0.4280     1.8660 c6         1 LOA      -0.068400
      2 C2          -4.1770     0.8330     1.0960 c6         1 LOA      -0.096400
      3 C3          -4.9580     0.4340    -0.1810 c6         1 LOA       0.178300
      4 O3          -5.3390     1.5990    -0.9400 os         1 LOA      -0.450100
      5 C4          -4.0980    -0.4910    -1.0700 c6         1 LOA      -0.077400
      6 C5          -3.5980    -1.7570    -0.2990 c6         1 LOA      -0.046700
      7 C6          -2.7590    -2.6750    -1.2360 c6         1 LOA      -0.068400
      8 C7          -1.3820    -2.0600    -1.5870 c6         1 LOA      -0.072400
      9 C8          -0.5720    -1.6800    -0.3150 c6         1 LOA      -0.043700
     10 C9          -1.4100    -0.7520     0.6390 c6         1 LOA      -0.045700
     11 C10         -2.8130    -1.3980     1.0220 c6         1 LOA      -0.032000
     12 C11         -0.5490    -0.3110     1.8720 c6         1 LOA      -0.070400
     13 C12          0.8050     0.3370     1.4620 c6         1 LOA      -0.062400
     14 C13          1.6590    -0.5910     0.5370 c5         1 LOA      -0.038000
     15 C14          0.7620    -0.9680    -0.6890 c5         1 LOA      -0.067700
     16 C15          1.7490    -1.7310    -1.6050 c5         1 LOA      -0.073400
     17 C16          3.0710    -0.9170    -1.4480 c5         1 LOA      -0.076400
     18 C17          2.8240     0.1110    -0.2760 c5         1 LOA      -0.047700
     19 C18          2.1730    -1.8020     1.3910 c3         1 LOA      -0.075100
     20 C19         -2.6250    -2.6920     1.8930 c3         1 LOA      -0.082100
     21 C20          4.1510     0.5350     0.4600 c3         1 LOA      -0.057700
     22 C21          3.9170     1.4380     1.6990 c3         1 LOA      -0.080100
     23 C22          5.1630     1.1960    -0.5340 c3         1 LOA      -0.056400
     24 C23          6.5860     1.4770     0.0250 c3         1 LOA      -0.205400
     25 C24          7.5450     1.8400    -1.1240 c          1 LOA       0.716000
     26 C25         -6.5310     3.6100    -1.4520 c3         1 LOA      -0.157100
     27 C26         -6.3490     2.4220    -0.5180 c          1 LOA       0.598100
     28 OT1          7.6320     3.0130    -1.4540 o          1 LOA      -0.743500
     29 OT2          8.1440     0.9350    -1.6850 o          1 LOA      -0.743500
     30 O25         -7.0350     2.2300     0.4770 o          1 LOA      -0.503000
     31 H1          -3.2130    -0.1290     2.7950 hc         1 LOA       0.040700
     32 H2          -4.6130    -0.9690     2.1960 hc         1 LOA       0.040700
     33 H3          -4.8150     1.4370     1.7540 hc         1 LOA       0.056200
     34 H4          -3.3190     1.4660     0.8360 hc         1 LOA       0.056200
     35 H5          -5.8680    -0.1140     0.1050 h1         1 LOA       0.058700
     36 H6          -4.6950    -0.8040    -1.9370 hc         1 LOA       0.053200
     37 H7          -3.2580     0.0860    -1.4760 hc         1 LOA       0.053200
     38 H8          -4.4970    -2.3250    -0.0160 hc         1 LOA       0.038700
     39 H9          -2.6130    -3.6580    -0.7700 hc         1 LOA       0.036200
     40 H10         -3.3170    -2.8720    -2.1620 hc         1 LOA       0.036200
     41 H11         -0.8160    -2.7860    -2.1860 hc         1 LOA       0.040200
     42 H12         -1.5140    -1.1800    -2.2290 hc         1 LOA       0.040200
     43 H13         -0.3200    -2.6110     0.2070 hc         1 LOA       0.048700
     44 H14         -1.6060     0.1690     0.0760 hc         1 LOA       0.045700
     45 H15         -1.0980     0.4250     2.4720 hc         1 LOA       0.032700
     46 H16         -0.3610    -1.1620     2.5380 hc         1 LOA       0.032700
     47 H17          0.6030     1.2900     0.9530 hc         1 LOA       0.041700
     48 H18          1.3470     0.5870     2.3790 hc         1 LOA       0.041700
     49 H19          0.4370    -0.0570    -1.2100 hc         1 LOA       0.042700
     50 H20          1.8780    -2.7730    -1.2900 hc         1 LOA       0.031700
     51 H21          1.4090    -1.7550    -2.6470 hc         1 LOA       0.031700
     52 H22          3.9080    -1.5910    -1.2300 hc         1 LOA       0.051700
     53 H23          3.3260    -0.3970    -2.3790 hc         1 LOA       0.051700
     54 H24          2.4360     1.0430    -0.7060 hc         1 LOA       0.042700
     55 H25          1.3580    -2.4330     1.7590 hc         1 LOA       0.029367
     56 H26          2.8510    -2.4570     0.8320 hc         1 LOA       0.029367
     57 H27          2.7300    -1.4560     2.2690 hc         1 LOA       0.029367
     58 H28         -3.5860    -3.1900     2.0720 hc         1 LOA       0.032367
     59 H29         -1.9690    -3.4350     1.4310 hc         1 LOA       0.032367
     60 H30         -2.2070    -2.4610     2.8790 hc         1 LOA       0.032367
     61 H31          4.6330    -0.3780     0.8310 hc         1 LOA       0.036700
     62 H32          3.2670     2.2870     1.4520 hc         1 LOA       0.024033
     63 H33          3.4650     0.8670     2.5150 hc         1 LOA       0.024033
     64 H34          4.8530     1.8320     2.1050 hc         1 LOA       0.024033
     65 H35          5.2860     0.5420    -1.4040 hc         1 LOA       0.040200
     66 H36          4.7340     2.1310    -0.9150 hc         1 LOA       0.040200
     67 H37          6.4920     2.3280     0.7090 hc         1 LOA       0.015700
     68 H38          6.9100     0.5480     0.5100 hc         1 LOA       0.015700
     69 H39         -5.5760     4.1400    -1.5380 hc         1 LOA       0.066700
     70 H40         -6.6810     3.2370    -2.4720 hc         1 LOA       0.066700
     71 H41         -7.3410     4.2750    -1.1370 hc         1 LOA       0.066700
@<TRIPOS>BOND
     1     1     2 1   
     2     1    11 1   
     3     1    31 1   
     4     1    32 1   
     5     2     3 1   
     6     2    33 1   
     7     2    34 1   
     8     3     4 1   
     9     3     5 1   
    10     3    35 1   
    11     4    27 1   
    12     5     6 1   
    13     5    36 1   
    14     5    37 1   
    15     6     7 1   
    16     6    11 1   
    17     6    38 1   
    18     7     8 1   
    19     7    39 1   
    20     7    40 1   
    21     8     9 1   
    22     8    41 1   
    23     8    42 1   
    24     9    10 1   
    25     9    15 1   
    26     9    43 1   
    27    10    11 1   
    28    10    12 1   
    29    10    44 1   
    30    11    20 1   
    31    12    13 1   
    32    12    45 1   
    33    12    46 1   
    34    13    14 1   
    35    13    47 1   
    36    13    48 1   
    37    14    15 1   
    38    14    18 1   
    39    14    19 1   
    40    15    16 1   
    41    15    49 1   
    42    16    17 1   
    43    16    50 1   
    44    16    51 1   
    45    17    18 1   
    46    17    52 1   
    47    17    53 1   
    48    18    21 1   
    49    18    54 1   
    50    19    55 1   
    51    19    56 1   
    52    19    57 1   
    53    20    58 1   
    54    20    59 1   
    55    20    60 1   
    56    21    22 1   
    57    21    23 1   
    58    21    61 1   
    59    22    62 1   
    60    22    63 1   
    61    22    64 1   
    62    23    24 1   
    63    23    65 1   
    64    23    66 1   
    65    24    25 1   
    66    24    67 1   
    67    24    68 1   
    68    25    28 1   
    69    25    29 1   
    70    26    27 1   
    71    26    69 1   
    72    26    70 1   
    73    26    71 1   
    74    27    30 2   
@<TRIPOS>SUBSTRUCTURE
     1 LOA         1 TEMP              0 ****  ****    0 ROOT
