@<TRIPOS>MOLECULE
LOB
   52    54     1     0     0
SMALL
abcg2


@<TRIPOS>ATOM
      1 O1          -3.8810    -1.1020    -1.4480 o          1 LOB      -0.528100
      2 C3          -3.7600    -0.2420    -0.6000 c          1 LOB       0.582700
      3 C1          -4.9710     0.3640     0.0270 ca         1 LOB      -0.177600
      4 C2          -6.2190    -0.2070    -0.2350 ca         1 LOB      -0.065000
      5 C5          -7.3670     0.3260     0.3270 ca         1 LOB      -0.124000
      6 C6          -7.2860     1.4450     1.1480 ca         1 LOB      -0.084000
      7 C7          -6.0520     2.0260     1.4060 ca         1 LOB      -0.124000
      8 C4          -4.9000     1.4850     0.8530 ca         1 LOB      -0.065000
      9 C8          -2.4070     0.2690    -0.1690 c3         1 LOB      -0.178400
     10 C9          -1.2320    -0.6450    -0.5340 c6         1 LOB       0.192500
     11 C12         -1.3140    -1.8660     0.3790 c6         1 LOB      -0.078400
     12 C15         -0.1350    -2.7950     0.1980 c6         1 LOB      -0.075400
     13 C13          1.1360    -2.0080     0.4390 c6         1 LOB      -0.079400
     14 C11          1.2320    -0.8010    -0.4880 c6         1 LOB       0.191500
     15 N1           0.0460     0.0720    -0.3840 n3         1 LOB      -0.714600
     16 C22          0.1390     1.1280    -1.3820 c3         1 LOB       0.140100
     17 C14          2.5010     0.0110    -0.1790 c3         1 LOB      -0.112400
     18 C16          3.7960    -0.7980    -0.0900 c3         1 LOB       0.215600
     19 O2           4.0370    -1.5510    -1.2610 oh         1 LOB      -0.650000
     20 C17          4.9520     0.1190     0.2520 ca         1 LOB      -0.111300
     21 C18          5.4220     0.1900     1.5590 ca         1 LOB      -0.099000
     22 C20          6.4600     1.0480     1.8990 ca         1 LOB      -0.109000
     23 C21          7.0440     1.8490     0.9270 ca         1 LOB      -0.107000
     24 C10          6.5830     1.7850    -0.3820 ca         1 LOB      -0.109000
     25 C19          5.5450     0.9260    -0.7170 ca         1 LOB      -0.099000
     26 H2          -6.2890    -1.0760    -0.8740 ha         1 LOB       0.124000
     27 H5          -8.3270    -0.1320     0.1270 ha         1 LOB       0.117000
     28 H6          -8.1840     1.8620     1.5850 ha         1 LOB       0.115000
     29 H7          -5.9850     2.8990     2.0410 ha         1 LOB       0.117000
     30 H4          -3.9490     1.9540     1.0670 ha         1 LOB       0.124000
     31 H8C1        -2.4010     0.4400     0.9110 hc         1 LOB       0.070200
     32 H8C2        -2.3230     1.2660    -0.6130 hc         1 LOB       0.070200
     33 H9          -1.3460    -0.9860    -1.5770 h1         1 LOB       0.045700
     34 H121        -2.2510    -2.3900     0.1900 hc         1 LOB       0.049200
     35 H122        -1.3440    -1.5240     1.4190 hc         1 LOB       0.049200
     36 H151        -0.1300    -3.2090    -0.8160 hc         1 LOB       0.044700
     37 H152        -0.2010    -3.6410     0.8850 hc         1 LOB       0.044700
     38 H131         2.0020    -2.6520     0.2820 hc         1 LOB       0.050700
     39 H132         1.1720    -1.6710     1.4810 hc         1 LOB       0.050700
     40 H11          1.3040    -1.1860    -1.5220 h1         1 LOB       0.025700
     41 H221         0.2370     0.7310    -2.4040 h1         1 LOB       0.030367
     42 H222        -0.7360     1.7720    -1.3630 h1         1 LOB       0.030367
     43 H223         0.9870     1.7820    -1.1950 h1         1 LOB       0.030367
     44 H141         2.6590     0.7820    -0.9380 hc         1 LOB       0.055200
     45 H142         2.3570     0.5390     0.7680 hc         1 LOB       0.055200
     46 H16          3.7130    -1.5300     0.7170 h1         1 LOB       0.076700
     47 HA           3.8650    -0.9980    -2.0300 ho         1 LOB       0.439000
     48 H18          4.9740    -0.4390     2.3210 ha         1 LOB       0.108500
     49 H20          6.8150     1.0860     2.9210 ha         1 LOB       0.112500
     50 H21          7.8560     2.5170     1.1850 ha         1 LOB       0.113000
     51 H10          7.0320     2.4070    -1.1450 ha         1 LOB       0.112500
     52 H19          5.2050     0.8940    -1.7450 ha         1 LOB       0.108500
@<TRIPOS>BOND
     1     1     2 2   
     2     2     3 1   
     3     2     9 1   
     4     3     4 ar  
     5     3     8 ar  
     6     4     5 ar  
     7     4    26 1   
     8     5     6 ar  
     9     5    27 1   
    10     6     7 ar  
    11     6    28 1   
    12     7     8 ar  
    13     7    29 1   
    14     8    30 1   
    15     9    10 1   
    16     9    31 1   
    17     9    32 1   
    18    10    11 1   
    19    10    15 1   
    20    10    33 1   
    21    11    12 1   
    22    11    34 1   
    23    11    35 1   
    24    12    13 1   
    25    12    36 1   
    26    12    37 1   
    27    13    14 1   
    28    13    38 1   
    29    13    39 1   
    30    14    15 1   
    31    14    17 1   
    32    14    40 1   
    33    15    16 1   
    34    16    41 1   
    35    16    42 1   
    36    16    43 1   
    37    17    18 1   
    38    17    44 1   
    39    17    45 1   
    40    18    19 1   
    41    18    20 1   
    42    18    46 1   
    43    19    47 1   
    44    20    21 ar  
    45    20    25 ar  
    46    21    22 ar  
    47    21    48 1   
    48    22    23 ar  
    49    22    49 1   
    50    23    24 ar  
    51    23    50 1   
    52    24    25 ar  
    53    24    51 1   
    54    25    52 1   
@<TRIPOS>SUBSTRUCTURE
     1 LOB         1 TEMP              0 ****  ****    0 ROOT
