@<TRIPOS>MOLECULE
LOB
   52    54     1     0     0
SMALL
No Charge or Current Charge


@<TRIPOS>ATOM
      1 O1          -4.2080    -0.2760    -2.4170 o          1 LOB      -0.528100
      2 C3          -3.9140     0.2650    -1.3570 c          1 LOB       0.582700
      3 C1          -4.9050     0.2760    -0.2100 ca         1 LOB      -0.177600
      4 C2          -5.8050    -0.8050    -0.0720 ca         1 LOB      -0.065000
      5 C5          -6.7350    -0.8340     0.9810 ca         1 LOB      -0.124000
      6 C6          -6.7830     0.2180     1.9080 ca         1 LOB      -0.084000
      7 C7          -5.9040     1.3040     1.7750 ca         1 LOB      -0.124000
      8 C4          -4.9710     1.3380     0.7240 ca         1 LOB      -0.065000
      9 C8          -2.5320     0.9160    -1.2010 c3         1 LOB      -0.178400
     10 C9          -1.3890    -0.1220    -0.9540 c6         1 LOB       0.192500
     11 C12         -1.7800    -1.0660     0.2230 c6         1 LOB      -0.078400
     12 C15         -0.7030    -2.1270     0.4780 c6         1 LOB      -0.075400
     13 C13          0.6490    -1.4440     0.7260 c6         1 LOB      -0.079400
     14 C11          1.0450    -0.4990    -0.4480 c6         1 LOB       0.191500
     15 N1          -0.0440     0.5240    -0.7040 n3         1 LOB      -0.714600
     16 C22          0.3270     1.5120    -1.7600 c3         1 LOB       0.140100
     17 C14          2.4520     0.1480    -0.1710 c3         1 LOB      -0.112400
     18 C16          3.6190    -0.8110     0.1860 c3         1 LOB       0.215600
     19 O2           3.8100    -1.7570    -0.8690 oh         1 LOB      -0.650000
     20 C17          4.9340    -0.0730     0.4460 ca         1 LOB      -0.111300
     21 C18          5.5840    -0.2200     1.6900 ca         1 LOB      -0.099000
     22 C20          6.7940     0.4490     1.9470 ca         1 LOB      -0.109000
     23 C21          7.3680     1.2700     0.9630 ca         1 LOB      -0.107000
     24 C10          6.7310     1.4200    -0.2800 ca         1 LOB      -0.109000
     25 C19          5.5220     0.7530    -0.5390 ca         1 LOB      -0.099000
     26 H2          -5.7810    -1.6320    -0.7790 ha         1 LOB       0.124000
     27 H5          -7.4180    -1.6750     1.0790 ha         1 LOB       0.117000
     28 H6          -7.5040     0.1960     2.7230 ha         1 LOB       0.115000
     29 H7          -5.9480     2.1260     2.4860 ha         1 LOB       0.117000
     30 H4          -4.3240     2.2060     0.6380 ha         1 LOB       0.124000
     31 H8C1        -2.5250     1.6160    -0.3630 hc         1 LOB       0.070200
     32 H8C2        -2.3480     1.4570    -2.1350 hc         1 LOB       0.070200
     33 H9          -1.3210    -0.7420    -1.8620 h1         1 LOB       0.045700
     34 H121        -2.7220    -1.5870     0.0140 hc         1 LOB       0.049200
     35 H122        -1.9430    -0.4750     1.1360 hc         1 LOB       0.049200
     36 H151        -0.6290    -2.8020    -0.3860 hc         1 LOB       0.044700
     37 H152        -0.9780    -2.7460     1.3430 hc         1 LOB       0.044700
     38 H131         1.3990    -2.2340     0.8590 hc         1 LOB       0.050700
     39 H132         0.6150    -0.8770     1.6660 hc         1 LOB       0.050700
     40 H11          1.1550    -1.1220    -1.3490 h1         1 LOB       0.025700
     41 H221         0.4710     1.0160    -2.7300 h1         1 LOB       0.030367
     42 H222        -0.4330     2.2930    -1.8770 h1         1 LOB       0.030367
     43 H223         1.2440     2.0560    -1.5060 h1         1 LOB       0.030367
     44 H141         2.7750     0.7080    -1.0530 hc         1 LOB       0.055200
     45 H142         2.3570     0.8800     0.6410 hc         1 LOB       0.055200
     46 H16          3.3530    -1.3400     1.1110 h1         1 LOB       0.076700
     47 HA           4.4600    -1.3560    -1.4830 ho         1 LOB       0.439000
     48 H18          5.1520    -0.8530     2.4630 ha         1 LOB       0.108500
     49 H20          7.2860     0.3300     2.9100 ha         1 LOB       0.112500
     50 H21          8.3040     1.7870     1.1620 ha         1 LOB       0.113000
     51 H10          7.1760     2.0550    -1.0440 ha         1 LOB       0.112500
     52 H19          5.0460     0.8820    -1.5080 ha         1 LOB       0.108500
@<TRIPOS>BOND
     1     1     2 2   
     2     2     3 1   
     3     2     9 1   
     4     3     4 ar  
     5     3     8 ar  
     6     4     5 ar  
     7     4    26 1   
     8     5     6 ar  
     9     5    27 1   
    10     6     7 ar  
    11     6    28 1   
    12     7     8 ar  
    13     7    29 1   
    14     8    30 1   
    15     9    10 1   
    16     9    31 1   
    17     9    32 1   
    18    10    11 1   
    19    10    15 1   
    20    10    33 1   
    21    11    12 1   
    22    11    34 1   
    23    11    35 1   
    24    12    13 1   
    25    12    36 1   
    26    12    37 1   
    27    13    14 1   
    28    13    38 1   
    29    13    39 1   
    30    14    15 1   
    31    14    17 1   
    32    14    40 1   
    33    15    16 1   
    34    16    41 1   
    35    16    42 1   
    36    16    43 1   
    37    17    18 1   
    38    17    44 1   
    39    17    45 1   
    40    18    19 1   
    41    18    20 1   
    42    18    46 1   
    43    19    47 1   
    44    20    21 ar  
    45    20    25 ar  
    46    21    22 ar  
    47    21    48 1   
    48    22    23 ar  
    49    22    49 1   
    50    23    24 ar  
    51    23    50 1   
    52    24    25 ar  
    53    24    51 1   
    54    25    52 1   
@<TRIPOS>SUBSTRUCTURE
     1 LOB         1 TEMP              0 ****  ****    0 ROOT
