@<TRIPOS>MOLECULE
LOC
   54    56     1     0     0
SMALL
No Charge or Current Charge


@<TRIPOS>ATOM
      1 O4          -1.1410     2.4360    -2.5790 o          1 LOC      -0.600100
      2 C12         -1.6860     3.1850    -1.7820 c          1 LOC       0.603100
      3 C13         -2.5880     4.3310    -2.2180 c3         1 LOC      -0.180100
      4 N1          -1.5340     3.0580    -0.4210 ns         1 LOC      -0.511900
      5 C11         -0.7100     2.0320     0.2300 c3         1 LOC       0.135900
      6 C14         -1.3770     0.6630     0.3670 cc         1 LOC       0.018800
      7 C15         -2.7570     0.5880     0.4120 cd         1 LOC      -0.302200
      8 C10         -0.1840     2.5430     1.5870 c3         1 LOC      -0.078400
      9 C9           0.5990     1.4650     2.3660 c3         1 LOC      -0.029100
     10 C8           1.5280     0.6670     1.4530 ca         1 LOC      -0.030300
     11 C7           2.9130     0.8480     1.5790 ca         1 LOC      -0.199000
     12 C5           3.8130     0.1170     0.7810 ca         1 LOC       0.140100
     13 C3           3.3290    -0.7950    -0.1820 ca         1 LOC       0.045100
     14 C1           1.9180    -0.9570    -0.3370 ca         1 LOC       0.136100
     15 O1           1.4150    -1.7500    -1.3500 os         1 LOC      -0.363100
     16 C2           0.7320    -1.1420    -2.4620 c3         1 LOC       0.144900
     17 O2           4.2930    -1.4690    -0.9350 os         1 LOC      -0.336100
     18 C4           4.0240    -2.5640    -1.8290 c3         1 LOC       0.150900
     19 O3           5.1850     0.2740     0.9090 os         1 LOC      -0.322100
     20 C6           5.7800     1.1790     1.8560 c3         1 LOC       0.144900
     21 C22          1.0080    -0.2530     0.5070 ca         1 LOC      -0.104800
     22 C21         -0.4640    -0.4690     0.4200 cc         1 LOC      -0.049200
     23 C20         -0.7610    -1.8210     0.5760 cd         1 LOC      -0.077000
     24 C19         -2.0210    -2.5110     0.6180 cd         1 LOC      -0.284000
     25 C17         -3.2960    -1.9600     0.5590 cc         1 LOC       0.080900
     26 C16         -3.7030    -0.5310     0.4800 c          1 LOC       0.576500
     27 O5          -4.8970    -0.2400     0.4710 o          1 LOC      -0.534100
     28 O6          -4.3420    -2.8820     0.6040 os         1 LOC      -0.308100
     29 C18         -4.2080    -4.3170     0.6860 c3         1 LOC       0.140900
     30 H13         -2.6850     4.4000    -3.3070 hc         1 LOC       0.062033
     31 H13A        -3.5630     4.2210    -1.7300 hc         1 LOC       0.062033
     32 H13B        -2.2140     5.2650    -1.7840 hc         1 LOC       0.062033
     33 HN1         -2.0160     3.7340     0.1590 hn         1 LOC       0.315500
     34 H11          0.1640     1.9070    -0.4240 h1         1 LOC       0.090700
     35 H15         -3.3170     1.5140     0.3840 ha         1 LOC       0.190000
     36 H10          0.4680     3.4070     1.4110 hc         1 LOC       0.049200
     37 H10A        -1.0210     2.8900     2.2060 hc         1 LOC       0.049200
     38 H9           1.1550     1.9480     3.1790 hc         1 LOC       0.056200
     39 H9A         -0.1090     0.7870     2.8590 hc         1 LOC       0.056200
     40 H7           3.2780     1.5570     2.3160 ha         1 LOC       0.120000
     41 H2          -0.1690    -0.6070    -2.1410 h1         1 LOC       0.047033
     42 H2A          1.3900    -0.4270    -2.9740 h1         1 LOC       0.047033
     43 H2B          0.4300    -1.9070    -3.1880 h1         1 LOC       0.047033
     44 H4           4.9670    -2.9890    -2.1960 h1         1 LOC       0.036033
     45 H4A          3.4710    -3.3610    -1.3180 h1         1 LOC       0.036033
     46 H4B          3.4520    -2.2280    -2.7030 h1         1 LOC       0.036033
     47 H6           5.4980     0.9100     2.8820 h1         1 LOC       0.042367
     48 H6A          6.8740     1.1380     1.7840 h1         1 LOC       0.042367
     49 H6B          5.4650     2.2120     1.6610 h1         1 LOC       0.042367
     50 H20          0.0890    -2.4910     0.6850 ha         1 LOC       0.185000
     51 H19         -1.8980    -3.5810     0.7180 ha         1 LOC       0.179000
     52 H18         -3.6570    -4.7110    -0.1770 h1         1 LOC       0.046367
     53 H18A        -3.6920    -4.6130     1.6090 h1         1 LOC       0.046367
     54 H18B        -5.1990    -4.7880     0.6930 h1         1 LOC       0.046367
@<TRIPOS>BOND
     1     1     2 2   
     2     2     3 1   
     3     2     4 1   
     4     3    30 1   
     5     3    31 1   
     6     3    32 1   
     7     4     5 1   
     8     4    33 1   
     9     5     6 1   
    10     5     8 1   
    11     5    34 1   
    12     6     7 2   
    13     6    22 1   
    14     7    26 1   
    15     7    35 1   
    16     8     9 1   
    17     8    36 1   
    18     8    37 1   
    19     9    10 1   
    20     9    38 1   
    21     9    39 1   
    22    10    11 ar  
    23    10    21 ar  
    24    11    12 ar  
    25    11    40 1   
    26    12    13 ar  
    27    12    19 1   
    28    13    14 ar  
    29    13    17 1   
    30    14    15 1   
    31    14    21 ar  
    32    15    16 1   
    33    16    41 1   
    34    16    42 1   
    35    16    43 1   
    36    17    18 1   
    37    18    44 1   
    38    18    45 1   
    39    18    46 1   
    40    19    20 1   
    41    20    47 1   
    42    20    48 1   
    43    20    49 1   
    44    21    22 1   
    45    22    23 2   
    46    23    24 1   
    47    23    50 1   
    48    24    25 2   
    49    24    51 1   
    50    25    26 1   
    51    25    28 1   
    52    26    27 2   
    53    28    29 1   
    54    29    52 1   
    55    29    53 1   
    56    29    54 1   
@<TRIPOS>SUBSTRUCTURE
     1 LOC         1 TEMP              0 ****  ****    0 ROOT
