@<TRIPOS>MOLECULE
LOC
   54    56     1     0     0
SMALL
bcc


@<TRIPOS>ATOM
      1 O4          -1.3820     2.2460    -2.4250 o          1 LOC      -0.600100
      2 C12         -1.8070     3.0570    -1.6150 c          1 LOC       0.670100
      3 C13         -2.7160     4.1910    -2.0140 c3         1 LOC      -0.180100
      4 N1          -1.5160     2.9830    -0.3010 ns         1 LOC      -0.578900
      5 C11         -0.6850     1.9430     0.2440 c3         1 LOC       0.135900
      6 C14         -1.3710     0.5810     0.3590 cc         1 LOC       0.018800
      7 C15         -2.7300     0.5710     0.4390 cd         1 LOC      -0.252200
      8 C10         -0.1420     2.3890     1.6070 c3         1 LOC      -0.078400
      9 C9           0.6200     1.2810     2.3420 c3         1 LOC      -0.029100
     10 C8           1.5390     0.5470     1.4080 ca         1 LOC      -0.030300
     11 C7           2.9130     0.7490     1.4640 ca         1 LOC      -0.217000
     12 C5           3.7580     0.1380     0.5430 ca         1 LOC       0.140100
     13 C3           3.2080    -0.6550    -0.4720 ca         1 LOC       0.045100
     14 C1           1.8350    -0.8650    -0.5160 ca         1 LOC       0.136100
     15 O1           1.3300    -1.6430    -1.5080 os         1 LOC      -0.339900
     16 C2           0.9180    -0.9110    -2.6550 c3         1 LOC       0.121700
     17 O2           4.0170    -1.1890    -1.4230 os         1 LOC      -0.312900
     18 C4           4.4770    -2.5020    -1.1310 c3         1 LOC       0.127700
     19 O3           5.0930     0.2670     0.5270 os         1 LOC      -0.298900
     20 C6           5.7040     1.0710     1.5180 c3         1 LOC       0.121700
     21 C22          0.9850    -0.2810     0.4300 ca         1 LOC      -0.104800
     22 C21         -0.4790    -0.5390     0.4140 cc         1 LOC      -0.049200
     23 C20         -0.8760    -1.8440     0.4840 cd         1 LOC      -0.027000
     24 C19         -2.1550    -2.4420     0.5160 cd         1 LOC      -0.234000
     25 C17         -3.4020    -1.8890     0.5510 cc         1 LOC       0.080900
     26 C16         -3.7390    -0.4530     0.5690 c          1 LOC       0.576500
     27 O5          -4.9200    -0.1310     0.6740 o          1 LOC      -0.534100
     28 O6          -4.5130    -2.6170     0.5940 os         1 LOC      -0.284900
     29 C18         -4.4400    -4.0320     0.5790 c3         1 LOC       0.117700
     30 H13         -2.3450     4.6580    -2.9250 hc         1 LOC       0.062033
     31 H13A        -3.7080     3.7930    -2.2320 hc         1 LOC       0.062033
     32 H13B        -2.8200     4.9540    -1.2440 hc         1 LOC       0.062033
     33 HN1         -1.9170     3.6620     0.3270 hn         1 LOC       0.315500
     34 H11          0.1590     1.8180    -0.4380 h1         1 LOC       0.090700
     35 H15         -3.2010     1.5470     0.3930 ha         1 LOC       0.140000
     36 H10          0.5160     3.2460     1.4440 hc         1 LOC       0.049200
     37 H10A        -0.9690     2.7290     2.2370 hc         1 LOC       0.049200
     38 H9           1.1840     1.7230     3.1630 hc         1 LOC       0.056200
     39 H9A         -0.0910     0.5850     2.7940 hc         1 LOC       0.056200
     40 H7           3.3110     1.3860     2.2430 ha         1 LOC       0.138000
     41 H2           0.1620    -0.1590    -2.4100 h1         1 LOC       0.047033
     42 H2A          1.7640    -0.4120    -3.1350 h1         1 LOC       0.047033
     43 H2B          0.4870    -1.6250    -3.3540 h1         1 LOC       0.047033
     44 H4           5.1460    -2.7950    -1.9380 h1         1 LOC       0.036033
     45 H4A          5.0310    -2.5370    -0.1890 h1         1 LOC       0.036033
     46 H4B          3.6520    -3.2170    -1.0820 h1         1 LOC       0.036033
     47 H6           5.5170     0.6900     2.5250 h1         1 LOC       0.042367
     48 H6A          6.7730     1.0390     1.3250 h1         1 LOC       0.042367
     49 H6B          5.3660     2.1090     1.4660 h1         1 LOC       0.042367
     50 H20         -0.0780    -2.5740     0.5330 ha         1 LOC       0.135000
     51 H19         -2.1030    -3.5220     0.5370 ha         1 LOC       0.129000
     52 H18         -3.9540    -4.4020    -0.3260 h1         1 LOC       0.046367
     53 H18A        -3.9100    -4.4180     1.4530 h1         1 LOC       0.046367
     54 H18B        -5.4660    -4.3880     0.6020 h1         1 LOC       0.046367
@<TRIPOS>BOND
     1     1     2 2   
     2     2     3 1   
     3     2     4 1   
     4     3    30 1   
     5     3    31 1   
     6     3    32 1   
     7     4     5 1   
     8     4    33 1   
     9     5     6 1   
    10     5     8 1   
    11     5    34 1   
    12     6     7 2   
    13     6    22 1   
    14     7    26 1   
    15     7    35 1   
    16     8     9 1   
    17     8    36 1   
    18     8    37 1   
    19     9    10 1   
    20     9    38 1   
    21     9    39 1   
    22    10    11 ar  
    23    10    21 ar  
    24    11    12 ar  
    25    11    40 1   
    26    12    13 ar  
    27    12    19 1   
    28    13    14 ar  
    29    13    17 1   
    30    14    15 1   
    31    14    21 ar  
    32    15    16 1   
    33    16    41 1   
    34    16    42 1   
    35    16    43 1   
    36    17    18 1   
    37    18    44 1   
    38    18    45 1   
    39    18    46 1   
    40    19    20 1   
    41    20    47 1   
    42    20    48 1   
    43    20    49 1   
    44    21    22 1   
    45    22    23 2   
    46    23    24 1   
    47    23    50 1   
    48    24    25 2   
    49    24    51 1   
    50    25    26 1   
    51    25    28 1   
    52    26    27 2   
    53    28    29 1   
    54    29    52 1   
    55    29    53 1   
    56    29    54 1   
@<TRIPOS>SUBSTRUCTURE
     1 LOC         1 TEMP              0 ****  ****    0 ROOT
