@<TRIPOS>MOLECULE
LOE
   42    44     1     0     0
SMALL
abcg2


@<TRIPOS>ATOM
      1 C4          -2.7270     1.4810    -0.4220 c6         1 LOE      -0.087900
      2 C5          -4.2280     1.2300    -0.3020 c6         1 LOE      -0.069400
      3 C6          -1.0010    -1.4440    -1.4290 c5         1 LOE       0.121600
      4 C7           0.1130    -0.4580    -1.0750 c5         1 LOE       0.141300
      5 C8           1.2670    -1.1320    -0.3590 c3         1 LOE       0.164800
      6 C10          4.0600     1.3860    -0.5220 c6         1 LOE      -0.074900
      7 C13          3.2240    -0.9150     0.9840 c6         1 LOE       0.167800
      8 N            2.3120    -0.2320     0.0810 n3         1 LOE      -0.702600
      9 C           -4.5810     0.5880     1.0360 c6         1 LOE      -0.075400
     10 O           -2.1700    -0.6780    -1.2620 os         1 LOE      -0.456000
     11 C1          -3.7760    -0.6860     1.2700 c6         1 LOE      -0.069400
     12 C11          5.0330     0.7340     0.4500 c6         1 LOE      -0.075400
     13 C12          4.2600     0.0370     1.5610 c6         1 LOE      -0.074900
     14 C2          -2.2780    -0.4260     1.1500 c6         1 LOE      -0.087900
     15 C3          -1.9230     0.2100    -0.1950 c5         1 LOE       0.387000
     16 C9           3.0350     0.3790    -1.0220 c6         1 LOE       0.167800
     17 O1          -0.5370     0.4940    -0.2510 os         1 LOE      -0.456000
     18 H1          -2.4770     1.8960    -1.4020 hc         1 LOE       0.054450
     19 H2          -2.4210     2.2170     0.3270 hc         1 LOE       0.054450
     20 H3          -4.7640     2.1750    -0.4220 hc         1 LOE       0.044200
     21 H4          -4.5630     0.5850    -1.1190 hc         1 LOE       0.044200
     22 H5          -0.9460    -1.8000    -2.4580 h1         1 LOE       0.054700
     23 H6          -0.9890    -2.3180    -0.7620 h1         1 LOE       0.054700
     24 H7           0.4610     0.0430    -1.9860 h1         1 LOE       0.059700
     25 H8           0.8650    -1.6420     0.5220 h1         1 LOE       0.033700
     26 H9           1.6570    -1.9250    -1.0240 h1         1 LOE       0.033700
     27 H11          4.5890     1.8120    -1.3780 hc         1 LOE       0.047200
     28 H12          2.6410    -1.3610     1.7950 h1         1 LOE       0.027450
     29 H13          3.7420    -1.7490     0.4750 h1         1 LOE       0.027450
     30 H15         -4.3770     1.2990     1.8430 hc         1 LOE       0.038700
     31 H16         -5.6510     0.3710     1.0780 hc         1 LOE       0.038700
     32 H17         -3.9980    -1.0970     2.2570 hc         1 LOE       0.044200
     33 H18         -4.0750    -1.4490     0.5450 hc         1 LOE       0.044200
     34 H19          5.6440    -0.0010    -0.0860 hc         1 LOE       0.038200
     35 H20          5.7230     1.4730     0.8650 hc         1 LOE       0.038200
     36 H21          3.7540     0.7810     2.1830 hc         1 LOE       0.047200
     37 H22          4.9340    -0.5200     2.2160 hc         1 LOE       0.047200
     38 H23         -1.9580     0.2560     1.9440 hc         1 LOE       0.054450
     39 H24         -1.7140    -1.3540     1.2950 hc         1 LOE       0.054450
     40 H25          2.3300     0.8890    -1.6810 h1         1 LOE       0.027450
     41 H26          3.5450    -0.3860    -1.6380 h1         1 LOE       0.027450
     42 H10          3.5380     2.2100    -0.0260 hc         1 LOE       0.047200
@<TRIPOS>BOND
     1     1     2 1   
     2     1    15 1   
     3     1    18 1   
     4     1    19 1   
     5     2     9 1   
     6     2    20 1   
     7     2    21 1   
     8     3     4 1   
     9     3    10 1   
    10     3    22 1   
    11     3    23 1   
    12     4     5 1   
    13     4    17 1   
    14     4    24 1   
    15     5     8 1   
    16     5    25 1   
    17     5    26 1   
    18     6    12 1   
    19     6    16 1   
    20     6    27 1   
    21     6    42 1   
    22     7     8 1   
    23     7    13 1   
    24     7    28 1   
    25     7    29 1   
    26     8    16 1   
    27     9    11 1   
    28     9    30 1   
    29     9    31 1   
    30    10    15 1   
    31    11    14 1   
    32    11    32 1   
    33    11    33 1   
    34    12    13 1   
    35    12    34 1   
    36    12    35 1   
    37    13    36 1   
    38    13    37 1   
    39    14    15 1   
    40    14    38 1   
    41    14    39 1   
    42    15    17 1   
    43    16    40 1   
    44    16    41 1   
@<TRIPOS>SUBSTRUCTURE
     1 LOE         1 TEMP              0 ****  ****    0 ROOT
