@<TRIPOS>MOLECULE
LOE
   42    44     1     0     0
SMALL
No Charge or Current Charge


@<TRIPOS>ATOM
      1 C4          -2.8290     1.5300    -0.5170 c6         1 LOE      -0.087900
      2 C5          -4.2960     1.2180    -0.1250 c6         1 LOE      -0.069400
      3 C6          -1.1030    -1.4670    -1.7350 c5         1 LOE       0.121600
      4 C7           0.0850    -0.5200    -1.3710 c5         1 LOE       0.141300
      5 C8           1.1470    -1.1480    -0.4110 c3         1 LOE       0.164800
      6 C10          4.0890     1.3600    -0.4570 c6         1 LOE      -0.074900
      7 C13          3.0620    -0.8910     1.1240 c6         1 LOE       0.167800
      8 N            2.2190    -0.2370     0.0840 n3         1 LOE      -0.702600
      9 C           -4.3700     0.5670     1.2760 c6         1 LOE      -0.075400
     10 O           -2.2690    -0.6420    -1.5190 os         1 LOE      -0.456000
     11 C1          -3.4870    -0.7010     1.3460 c6         1 LOE      -0.069400
     12 C11          4.9750     0.7220     0.6360 c6         1 LOE      -0.075400
     13 C12          4.0890     0.0940     1.7350 c6         1 LOE      -0.074900
     14 C2          -2.0200    -0.3910     0.9480 c6         1 LOE      -0.087900
     15 C3          -1.9200     0.2720    -0.4660 c5         1 LOE       0.387000
     16 C9           3.0570     0.3440    -1.0060 c6         1 LOE       0.167800
     17 O1          -0.5690     0.6460    -0.7940 os         1 LOE      -0.456000
     18 H1          -2.8000     1.9630    -1.5260 hc         1 LOE       0.054450
     19 H2          -2.4240     2.2960     0.1590 hc         1 LOE       0.054450
     20 H3          -4.8900     2.1420    -0.1380 hc         1 LOE       0.044200
     21 H4          -4.7460     0.5480    -0.8700 hc         1 LOE       0.044200
     22 H5          -1.0720    -1.8070    -2.7790 h1         1 LOE       0.054700
     23 H6          -1.1500    -2.3460    -1.0790 h1         1 LOE       0.054700
     24 H7           0.5940    -0.2010    -2.2890 h1         1 LOE       0.059700
     25 H8           0.6210    -1.5770     0.4490 h1         1 LOE       0.033700
     26 H9           1.6080    -1.9950    -0.9390 h1         1 LOE       0.033700
     27 H11          4.7150     1.7350    -1.2780 hc         1 LOE       0.047200
     28 H12          2.4290    -1.2820     1.9340 h1         1 LOE       0.027450
     29 H13          3.6000    -1.7470     0.6920 h1         1 LOE       0.027450
     30 H15         -4.0440     1.2890     2.0390 hc         1 LOE       0.038700
     31 H16         -5.4110     0.3110     1.5140 hc         1 LOE       0.038700
     32 H17         -3.5170    -1.1190     2.3620 hc         1 LOE       0.044200
     33 H18         -3.8960    -1.4730     0.6800 hc         1 LOE       0.044200
     34 H19          5.6170    -0.0510     0.1890 hc         1 LOE       0.038200
     35 H20          5.6440     1.4770     1.0720 hc         1 LOE       0.038200
     36 H21          3.5580     0.8850     2.2820 hc         1 LOE       0.047200
     37 H22          4.7150    -0.4300     2.4690 hc         1 LOE       0.047200
     38 H23         -1.5740     0.2830     1.6920 hc         1 LOE       0.054450
     39 H24         -1.4450    -1.3220     0.9990 hc         1 LOE       0.054450
     40 H25          2.4300     0.8640    -1.7430 h1         1 LOE       0.027450
     41 H26          3.5910    -0.4560    -1.5400 h1         1 LOE       0.027450
     42 H10          3.5600     2.2300    -0.0440 hc         1 LOE       0.047200
@<TRIPOS>BOND
     1     1     2 1   
     2     1    15 1   
     3     1    18 1   
     4     1    19 1   
     5     2     9 1   
     6     2    20 1   
     7     2    21 1   
     8     3     4 1   
     9     3    10 1   
    10     3    22 1   
    11     3    23 1   
    12     4     5 1   
    13     4    17 1   
    14     4    24 1   
    15     5     8 1   
    16     5    25 1   
    17     5    26 1   
    18     6    12 1   
    19     6    16 1   
    20     6    27 1   
    21     6    42 1   
    22     7     8 1   
    23     7    13 1   
    24     7    28 1   
    25     7    29 1   
    26     8    16 1   
    27     9    11 1   
    28     9    30 1   
    29     9    31 1   
    30    10    15 1   
    31    11    14 1   
    32    11    32 1   
    33    11    33 1   
    34    12    13 1   
    35    12    34 1   
    36    12    35 1   
    37    13    36 1   
    38    13    37 1   
    39    14    15 1   
    40    14    38 1   
    41    14    39 1   
    42    15    17 1   
    43    16    40 1   
    44    16    41 1   
@<TRIPOS>SUBSTRUCTURE
     1 LOE         1 TEMP              0 ****  ****    0 ROOT
