@<TRIPOS>MOLECULE
LOF
   21    21     1     0     0
SMALL
bcc


@<TRIPOS>ATOM
      1 C1          -0.1530     0.0390     2.7630 c          1 LOF       0.901600
      2 O1           0.8850     0.0690     3.4620 o          1 LOF      -0.825800
      3 O2          -1.3040    -0.2400     3.1300 o          1 LOF      -0.825800
      4 C2           0.0610     0.3900     1.2720 c3         1 LOF       0.001100
      5 O3           1.4100     0.7060     1.0500 oh         1 LOF      -0.643800
      6 C3          -0.3950    -0.7660     0.3750 c3         1 LOF      -0.043100
      7 C7          -0.2470    -0.4440    -1.0830 ca         1 LOF      -0.032300
      8 C8           0.9190    -0.7560    -1.7800 ca         1 LOF      -0.125500
      9 C9           1.0590    -0.4250    -3.1210 ca         1 LOF      -0.140000
     10 C4           0.0360     0.2360    -3.7890 ca         1 LOF      -0.158000
     11 C5          -1.1290     0.5570    -3.1060 ca         1 LOF      -0.140000
     12 C6          -1.2660     0.2190    -1.7660 ca         1 LOF      -0.125500
     13 H2          -0.5700     1.2610     1.0380 h1         1 LOF       0.029700
     14 HO3          1.8030     0.5490     1.9290 ho         1 LOF       0.432000
     15 H31          0.1820    -1.6620     0.6250 hc         1 LOF       0.051700
     16 H32         -1.4400    -0.9840     0.6030 hc         1 LOF       0.051700
     17 H1           1.7230    -1.2710    -1.2690 ha         1 LOF       0.130500
     18 H3           1.9710    -0.6820    -3.6460 ha         1 LOF       0.110500
     19 H4           0.1450     0.4940    -4.8350 ha         1 LOF       0.108000
     20 H5          -1.9360     1.0680    -3.6160 ha         1 LOF       0.110500
     21 H6          -2.1810     0.4700    -1.2420 ha         1 LOF       0.130500
@<TRIPOS>BOND
     1     1     2 1   
     2     1     3 1   
     3     1     4 1   
     4     4     5 1   
     5     4     6 1   
     6     4    13 1   
     7     5    14 1   
     8     6     7 1   
     9     6    15 1   
    10     6    16 1   
    11     7     8 ar  
    12     7    12 ar  
    13     8     9 ar  
    14     8    17 1   
    15     9    10 ar  
    16     9    18 1   
    17    10    11 ar  
    18    10    19 1   
    19    11    12 ar  
    20    11    20 1   
    21    12    21 1   
@<TRIPOS>SUBSTRUCTURE
     1 LOF         1 TEMP              0 ****  ****    0 ROOT
