@<TRIPOS>MOLECULE
LOF
   21    21     1     0     0
SMALL
No Charge or Current Charge


@<TRIPOS>ATOM
      1 C1          -0.3120     0.0170     2.8150 c          1 LOF       0.691000
      2 O1           0.6450    -0.1370     3.5650 o          1 LOF      -0.720500
      3 O2          -1.4750    -0.0070     3.1930 o          1 LOF      -0.720500
      4 C2          -0.0090     0.4110     1.3220 c3         1 LOF       0.024300
      5 O3           1.3390     0.9310     1.1650 oh         1 LOF      -0.706000
      6 C3          -0.2170    -0.8010     0.3770 c3         1 LOF      -0.043100
      7 C7          -0.1400    -0.4390    -1.1040 ca         1 LOF      -0.032300
      8 C8           0.9540    -0.8580    -1.8880 ca         1 LOF      -0.107500
      9 C9           1.0140    -0.5320    -3.2550 ca         1 LOF      -0.122000
     10 C4          -0.0190     0.2130    -3.8470 ca         1 LOF      -0.140000
     11 C5          -1.1130     0.6320    -3.0720 ca         1 LOF      -0.122000
     12 C6          -1.1740     0.3060    -1.7060 ca         1 LOF      -0.107500
     13 H2          -0.7360     1.1880     1.0470 h1         1 LOF       0.029700
     14 HO3          1.7920     0.7100     2.0150 ho         1 LOF       0.471000
     15 H31          0.5150    -1.5790     0.6240 hc         1 LOF       0.051700
     16 H32         -1.2000    -1.2410     0.5840 hc         1 LOF       0.051700
     17 H1           1.7590    -1.4340    -1.4380 ha         1 LOF       0.112500
     18 H3           1.8620    -0.8560    -3.8540 ha         1 LOF       0.092500
     19 H4           0.0280     0.4650    -4.9040 ha         1 LOF       0.090000
     20 H5          -1.9150     1.2080    -3.5300 ha         1 LOF       0.092500
     21 H6          -2.0260     0.6310    -1.1140 ha         1 LOF       0.112500
@<TRIPOS>BOND
     1     1     2 1   
     2     1     3 1   
     3     1     4 1   
     4     4     5 1   
     5     4     6 1   
     6     4    13 1   
     7     5    14 1   
     8     6     7 1   
     9     6    15 1   
    10     6    16 1   
    11     7     8 ar  
    12     7    12 ar  
    13     8     9 ar  
    14     8    17 1   
    15     9    10 ar  
    16     9    18 1   
    17    10    11 ar  
    18    10    19 1   
    19    11    12 ar  
    20    11    20 1   
    21    12    21 1   
@<TRIPOS>SUBSTRUCTURE
     1 LOF         1 TEMP              0 ****  ****    0 ROOT
