@<TRIPOS>MOLECULE
LOG
   30    30     1     0     0
SMALL
No Charge or Current Charge


@<TRIPOS>ATOM
      1 C2           0.8100     0.4270    -0.2110 c6         1 LOG       0.057400
      2 C3          -0.0910     1.5130     0.4290 c6         1 LOG       0.162300
      3 C4          -1.5310     1.4090    -0.1370 c6         1 LOG       0.097300
      4 C5          -2.0850    -0.0120     0.1840 c6         1 LOG       0.152300
      5 C6          -3.5020    -0.2680    -0.4260 c3         1 LOG       0.171600
      6 C8           4.6190     0.1510     0.4730 c3         1 LOG      -0.176100
      7 N2           2.2090     0.5230     0.2970 ns         1 LOG      -0.482900
      8 O1           0.0560    -3.2180     0.4840 oh         1 LOG      -0.480000
      9 O3           0.4310     2.8280     0.1840 oh         1 LOG      -0.640000
     10 O4          -2.3540     2.4490     0.4340 oh         1 LOG      -0.660000
     11 O5          -1.1890    -1.0490    -0.2970 os         1 LOG      -0.428600
     12 O6          -4.0040    -1.5900    -0.1570 oh         1 LOG      -0.636000
     13 C1           0.1620    -0.9630    -0.0170 c2         1 LOG       0.534600
     14 O7           3.2430    -0.7180    -1.3090 o          1 LOG      -0.598100
     15 N1           0.8150    -2.0250     0.3620 n2         1 LOG      -0.363700
     16 H2           0.8400     0.6110    -1.2940 h1         1 LOG       0.118700
     17 H3          -0.1330     1.3320     1.5140 h1         1 LOG       0.046700
     18 HA           2.3780     1.0730     1.1310 hn         1 LOG       0.315500
     19 H4          -1.4850     1.5250    -1.2310 h1         1 LOG       0.061700
     20 HB          -0.3260     3.4340     0.3610 ho         1 LOG       0.460000
     21 H5          -2.1660    -0.1140     1.2760 h1         1 LOG       0.073700
     22 HC          -3.1060     2.6110    -0.1820 ho         1 LOG       0.455000
     23 H61C        -4.1960     0.4780    -0.0180 h1         1 LOG       0.027200
     24 H62C        -3.4450    -0.1030    -1.5100 h1         1 LOG       0.027200
     25 H6          -4.8630    -1.6720    -0.6270 ho         1 LOG       0.446000
     26 H81C         4.5020    -0.1900     1.5070 hc         1 LOG       0.061033
     27 H82C         5.4720    -0.3290    -0.0190 hc         1 LOG       0.061033
     28 H83C         4.7790     1.2280     0.5990 hc         1 LOG       0.061033
     29 H1           0.7000    -3.9090     0.7690 ho         1 LOG       0.460000
     30 C7           3.3100    -0.0720    -0.2730 c          1 LOG       0.616100
@<TRIPOS>BOND
     1     1     2 1   
     2     1     7 1   
     3     1    13 1   
     4     1    16 1   
     5     2     3 1   
     6     2     9 1   
     7     2    17 1   
     8     3     4 1   
     9     3    10 1   
    10     3    19 1   
    11     4     5 1   
    12     4    11 1   
    13     4    21 1   
    14     5    12 1   
    15     5    23 1   
    16     5    24 1   
    17     6    26 1   
    18     6    27 1   
    19     6    28 1   
    20     6    30 1   
    21     7    18 1   
    22     7    30 1   
    23     8    15 1   
    24     8    29 1   
    25     9    20 1   
    26    10    22 1   
    27    11    13 1   
    28    12    25 1   
    29    13    15 2   
    30    14    30 2   
@<TRIPOS>SUBSTRUCTURE
     1 LOG         1 TEMP              0 ****  ****    0 ROOT
