@<TRIPOS>MOLECULE
LOG
   30    30     1     0     0
SMALL
abcg2


@<TRIPOS>ATOM
      1 C2           0.7720     0.3650    -0.1690 c6         1 LOG       0.057400
      2 C3          -0.1120     1.4860     0.3700 c6         1 LOG       0.162300
      3 C4          -1.5190     1.3330    -0.1930 c6         1 LOG       0.097300
      4 C5          -2.0750    -0.0380     0.1920 c6         1 LOG       0.152300
      5 C6          -3.4270    -0.3100    -0.4270 c3         1 LOG       0.171600
      6 C8           4.4860     0.2310     0.4860 c3         1 LOG      -0.176100
      7 N2           2.0850     0.4160     0.3990 ns         1 LOG      -0.482900
      8 O1           0.0930    -3.1340     0.4850 oh         1 LOG      -0.480000
      9 O3           0.4710     2.7030    -0.0010 oh         1 LOG      -0.640000
     10 O4          -2.3040     2.3640     0.3550 oh         1 LOG      -0.660000
     11 O5          -1.1980    -1.0790    -0.2520 os         1 LOG      -0.428600
     12 O6          -3.9120    -1.5360     0.0570 oh         1 LOG      -0.636000
     13 C1           0.1050    -0.9760     0.0420 c2         1 LOG       0.534600
     14 O7           3.2150     0.1230    -1.5350 o          1 LOG      -0.598100
     15 N1           0.8100    -1.9720     0.3770 n2         1 LOG      -0.363700
     16 H2           0.8700     0.5110    -1.2500 h1         1 LOG       0.118700
     17 H3          -0.1730     1.3930     1.4680 h1         1 LOG       0.046700
     18 HA           2.1550     0.4360     1.4040 hn         1 LOG       0.315500
     19 H4          -1.4690     1.4080    -1.2890 h1         1 LOG       0.061700
     20 HB          -0.1150     3.4110     0.2880 ho         1 LOG       0.460000
     21 H5          -2.1610    -0.0900     1.2860 h1         1 LOG       0.073700
     22 HC          -2.9590     2.6430    -0.2920 ho         1 LOG       0.455000
     23 H61C        -4.0920     0.5200    -0.1630 h1         1 LOG       0.027200
     24 H62C        -3.3250    -0.3090    -1.5210 h1         1 LOG       0.027200
     25 H6          -4.8100    -1.6500    -0.2680 ho         1 LOG       0.446000
     26 H81C         4.3480     0.5170     1.5270 hc         1 LOG       0.061033
     27 H82C         4.9050    -0.7760     0.4630 hc         1 LOG       0.061033
     28 H83C         5.2170     0.8980     0.0330 hc         1 LOG       0.061033
     29 H1           0.7570    -3.7800     0.7460 ho         1 LOG       0.460000
     30 C7           3.2130     0.2510    -0.3200 c          1 LOG       0.616100
@<TRIPOS>BOND
     1     1     2 1   
     2     1     7 1   
     3     1    13 1   
     4     1    16 1   
     5     2     3 1   
     6     2     9 1   
     7     2    17 1   
     8     3     4 1   
     9     3    10 1   
    10     3    19 1   
    11     4     5 1   
    12     4    11 1   
    13     4    21 1   
    14     5    12 1   
    15     5    23 1   
    16     5    24 1   
    17     6    26 1   
    18     6    27 1   
    19     6    28 1   
    20     6    30 1   
    21     7    18 1   
    22     7    30 1   
    23     8    15 1   
    24     8    29 1   
    25     9    20 1   
    26    10    22 1   
    27    11    13 1   
    28    12    25 1   
    29    13    15 2   
    30    14    30 2   
@<TRIPOS>SUBSTRUCTURE
     1 LOG         1 TEMP              0 ****  ****    0 ROOT
