@<TRIPOS>MOLECULE
LOH
   25    24     1     0     0
SMALL
bcc


@<TRIPOS>ATOM
      1 NZ          -4.4030    -0.4580    -0.8320 n8         1 LOH      -0.885800
      2 CE          -3.2000    -0.7380    -0.0570 c3         1 LOH       0.143800
      3 CD          -2.0940     0.2420    -0.4190 c3         1 LOH      -0.112400
      4 CG          -0.7740    -0.0380     0.2890 c3         1 LOH       0.118100
      5 CB           0.3440     0.8940    -0.1940 c3         1 LOH       0.090100
      6 CA           1.7470     0.4930     0.3010 c3         1 LOH      -0.005500
      7 N            2.7920     1.4030    -0.1540 n8         1 LOH      -0.869800
      8 C            2.0870    -0.9350    -0.1800 c          1 LOH       0.934600
      9 O            2.3840    -1.0410    -1.3880 o          1 LOH      -0.832300
     10 OH1          0.0540     2.2430     0.1390 oh         1 LOH      -0.632800
     11 OH2         -0.9040     0.0130     1.7010 oh         1 LOH      -0.586800
     12 O1           2.0200    -1.8580     0.6530 o          1 LOH      -0.832300
     13 H1          -5.1250    -1.1200    -0.5760 hn         1 LOH       0.323800
     14 H2          -4.7670     0.4490    -0.5640 hn         1 LOH       0.323800
     15 H4          -3.3700    -0.7180     1.0280 h1         1 LOH       0.033700
     16 H5          -2.8700    -1.7530    -0.2980 h1         1 LOH       0.033700
     17 H6          -1.9260     0.1960    -1.4990 hc         1 LOH       0.049200
     18 H7          -2.4240     1.2660    -0.2010 hc         1 LOH       0.049200
     19 H8          -0.4810    -1.0660     0.0550 h1         1 LOH       0.113700
     20 H9           0.3610     0.8590    -1.2890 h1         1 LOH       0.079700
     21 H10          1.7380     0.5030     1.3960 h1         1 LOH       0.056700
     22 H11          2.8970     1.2810    -1.1550 hn         1 LOH       0.324300
     23 H12          2.4960     2.3610    -0.0140 hn         1 LOH       0.324300
     24 H14          0.1270     2.3370     1.0950 ho         1 LOH       0.390000
     25 H15         -1.4740     0.7540     1.9270 ho         1 LOH       0.372000
@<TRIPOS>BOND
     1     1     2 1   
     2     1    13 1   
     3     1    14 1   
     4     2     3 1   
     5     2    15 1   
     6     2    16 1   
     7     3     4 1   
     8     3    17 1   
     9     3    18 1   
    10     4     5 1   
    11     4    11 1   
    12     4    19 1   
    13     5     6 1   
    14     5    10 1   
    15     5    20 1   
    16     6     7 1   
    17     6     8 1   
    18     6    21 1   
    19     7    22 1   
    20     7    23 1   
    21     8     9 1   
    22     8    12 1   
    23    10    24 1   
    24    11    25 1   
@<TRIPOS>SUBSTRUCTURE
     1 LOH         1 TEMP              0 ****  ****    0 ROOT
