@<TRIPOS>MOLECULE
LOH
   25    24     1     0     0
SMALL
No Charge or Current Charge


@<TRIPOS>ATOM
      1 NZ          -4.5010    -0.4530    -0.8380 n8         1 LOH      -0.996200
      2 CE          -3.2500    -0.7760    -0.1270 c3         1 LOH       0.143800
      3 CD          -2.1470     0.2580    -0.4350 c3         1 LOH      -0.112400
      4 CG          -0.7880    -0.0680     0.2370 c3         1 LOH       0.141300
      5 CB           0.3660     0.8920    -0.2200 c3         1 LOH       0.113300
      6 CA           1.7830     0.4800     0.2990 c3         1 LOH      -0.005500
      7 N            2.8170     1.5180    -0.0910 n8         1 LOH      -0.980200
      8 C            2.1210    -1.0130    -0.0970 c          1 LOH       0.724000
      9 O            2.0140    -1.3430    -1.2720 o          1 LOH      -0.727000
     10 OH1          0.0890     2.2530     0.1880 oh         1 LOH      -0.695000
     11 OH2         -0.9440    -0.0160     1.6670 oh         1 LOH      -0.649000
     12 O1           2.5160    -1.7730     0.7770 o          1 LOH      -0.727000
     13 H1          -5.2270    -1.1250    -0.5610 hn         1 LOH       0.379000
     14 H2          -4.8580     0.4460    -0.4930 hn         1 LOH       0.379000
     15 H4          -3.4550    -0.7980     0.9530 h1         1 LOH       0.033700
     16 H5          -2.9170    -1.7770    -0.4370 h1         1 LOH       0.033700
     17 H6          -1.9970     0.2970    -1.5210 hc         1 LOH       0.049200
     18 H7          -2.4840     1.2550    -0.1260 hc         1 LOH       0.049200
     19 H8          -0.5150    -1.0880    -0.0710 h1         1 LOH       0.113700
     20 H9           0.3960     0.8450    -1.3190 h1         1 LOH       0.079700
     21 H10          1.7310     0.4890     1.3970 h1         1 LOH       0.056700
     22 H11          3.0250     1.4170    -1.0930 hn         1 LOH       0.379500
     23 H12          2.3730     2.4430    -0.0390 hn         1 LOH       0.379500
     24 H14          0.4040     2.3360     1.1140 ho         1 LOH       0.429000
     25 H15         -1.3160     0.8680     1.8730 ho         1 LOH       0.411000
@<TRIPOS>BOND
     1     1     2 1   
     2     1    13 1   
     3     1    14 1   
     4     2     3 1   
     5     2    15 1   
     6     2    16 1   
     7     3     4 1   
     8     3    17 1   
     9     3    18 1   
    10     4     5 1   
    11     4    11 1   
    12     4    19 1   
    13     5     6 1   
    14     5    10 1   
    15     5    20 1   
    16     6     7 1   
    17     6     8 1   
    18     6    21 1   
    19     7    22 1   
    20     7    23 1   
    21     8     9 1   
    22     8    12 1   
    23    10    24 1   
    24    11    25 1   
@<TRIPOS>SUBSTRUCTURE
     1 LOH         1 TEMP              0 ****  ****    0 ROOT
