@<TRIPOS>MOLECULE
LOI
   40    42     1     0     0
SMALL
No Charge or Current Charge


@<TRIPOS>ATOM
      1 C4          -2.5630    -2.3230    -0.5570 ca         1 LOI       0.035000
      2 C5          -1.6330    -3.2700    -0.1120 ca         1 LOI      -0.232000
      3 C6          -0.7840    -0.6730    -0.6970 ca         1 LOI       0.043000
      4 C7           5.3160     1.6700     0.1670 cc         1 LOI      -0.318000
      5 C8          -3.8210     2.7020     1.4680 cc         1 LOI       0.374400
      6 C10         -2.1380    -1.0210    -0.8460 ca         1 LOI      -0.219000
      7 C13          3.0700     0.7810     0.0330 cc         1 LOI       0.539300
      8 C2           0.4570    -5.3690     0.3920 c3         1 LOI       0.211100
      9 C9           4.3180     2.6110     0.1130 cd         1 LOI       0.322300
     10 C11         -0.2780    -2.9330     0.0450 ca         1 LOI       0.435000
     11 C12          0.1660    -1.6180    -0.2340 ca         1 LOI      -0.274600
     12 C14         -3.3450     1.1160     0.0690 cc         1 LOI       0.465800
     13 N16         -3.0990     1.7890     2.1090 nd         1 LOI      -0.356000
     14 N17          3.0320     2.1010     0.0350 nd         1 LOI      -0.711000
     15 N18         -2.8010     0.7760     1.2240 nd         1 LOI      -0.357000
     16 N19          0.6100    -3.9060     0.4950 nu         1 LOI      -0.952200
     17 N20          1.8680     0.1300    -0.0460 ns         1 LOI      -0.460400
     18 N21         -4.0080     2.3090     0.1620 na         1 LOI      -0.362000
     19 O22          2.5140    -2.0350     0.0580 o          1 LOI      -0.623100
     20 S23          4.6650     0.0590     0.1200 ss         1 LOI       0.052600
     21 S24         -3.3260     0.1860    -1.4470 ss         1 LOI      -0.112300
     22 H4          -3.6090    -2.6000    -0.6770 ha         1 LOI       0.125000
     23 H5          -1.9810    -4.2720     0.1130 ha         1 LOI       0.122000
     24 H6          -0.4930     0.3410    -0.9610 ha         1 LOI       0.122000
     25 H7           6.3850     1.8210     0.2310 h4         1 LOI       0.157000
     26 H8          -4.2200     3.6230     1.8760 h5         1 LOI       0.062100
     27 H1           4.1220     4.5590    -0.7790 hc         1 LOI       0.048033
     28 H1A          4.0130     4.5510     0.9910 hc         1 LOI       0.048033
     29 H1B          5.5850     4.3520     0.1980 hc         1 LOI       0.048033
     30 H2           1.3530    -5.8740     0.7760 h1         1 LOI       0.042700
     31 H2A         -0.4060    -5.7140     0.9790 h1         1 LOI       0.042700
     32 H2B          0.3120    -5.6690    -0.6550 h1         1 LOI       0.042700
     33 H3          -4.0840     3.2440    -1.7310 h1         1 LOI       0.058700
     34 H3A         -5.5820     2.3960    -1.2450 h1         1 LOI       0.058700
     35 H3B         -5.1560     3.9610    -0.4940 h1         1 LOI       0.058700
     36 HN19         1.5770    -3.5550     0.5050 hn         1 LOI       0.531000
     37 HN20         1.0600     0.7260    -0.0920 hn         1 LOI       0.348500
     38 C15          1.6140    -1.2160    -0.0540 c          1 LOI       0.640700
     39 C1           4.5200     4.0980     0.1320 c3         1 LOI      -0.118400
     40 C3          -4.7520     3.0210    -0.8900 c3         1 LOI       0.061900
@<TRIPOS>BOND
     1     1     2 ar  
     2     1     6 ar  
     3     1    22 1   
     4     2    10 ar  
     5     2    23 1   
     6     3     6 ar  
     7     3    11 ar  
     8     3    24 1   
     9     4     9 2   
    10     4    20 1   
    11     4    25 1   
    12     5    13 2   
    13     5    18 1   
    14     5    26 1   
    15     6    21 1   
    16     7    14 2   
    17     7    17 1   
    18     7    20 1   
    19     8    16 1   
    20     8    30 1   
    21     8    31 1   
    22     8    32 1   
    23     9    14 1   
    24     9    39 1   
    25    10    11 ar  
    26    10    16 1   
    27    11    38 1   
    28    12    15 2   
    29    12    18 1   
    30    12    21 1   
    31    13    15 1   
    32    16    36 1   
    33    17    37 1   
    34    17    38 1   
    35    18    40 1   
    36    19    38 2   
    37    27    39 1   
    38    28    39 1   
    39    29    39 1   
    40    33    40 1   
    41    34    40 1   
    42    35    40 1   
@<TRIPOS>SUBSTRUCTURE
     1 LOI         1 TEMP              0 ****  ****    0 ROOT
