@<TRIPOS>MOLECULE
LOI
   40    42     1     0     0
SMALL
abcg2


@<TRIPOS>ATOM
      1 C4          -2.3970    -2.0150    -0.4700 ca         1 LOI       0.035000
      2 C5          -1.4890    -2.9760    -0.1030 ca         1 LOI      -0.232000
      3 C6          -0.6310    -0.4210    -0.7160 ca         1 LOI       0.043000
      4 C7           5.6660     1.3150    -0.0840 cc         1 LOI      -0.318000
      5 C8          -4.8750     2.3080     1.4980 cc         1 LOI       0.374400
      6 C10         -1.9760    -0.7230    -0.7910 ca         1 LOI      -0.219000
      7 C13          3.3130     0.8300    -0.0700 cc         1 LOI       0.539300
      8 C2           0.3750    -5.0260     0.6030 c3         1 LOI       0.211100
      9 C9           4.8550     2.3890     0.0830 cd         1 LOI       0.322300
     10 C11         -0.1020    -2.7030    -0.0480 ca         1 LOI       0.435000
     11 C12          0.3180    -1.3700    -0.3370 ca         1 LOI      -0.274600
     12 C14         -3.7100     1.1280     0.1510 cc         1 LOI       0.465800
     13 N16         -4.0700     1.5830     2.2120 nd         1 LOI      -0.356000
     14 N17          3.5150     2.0970     0.0890 nd         1 LOI      -0.711000
     15 N18         -3.3250     0.8290     1.3580 nd         1 LOI      -0.357000
     16 N19          0.7600    -3.6750     0.2850 nu         1 LOI      -0.952200
     17 N20          2.0390     0.3140    -0.1020 ns         1 LOI      -0.460400
     18 N21         -4.6920     2.0590     0.1790 na         1 LOI      -0.362000
     19 O22          2.6570    -1.8230    -0.3310 o          1 LOI      -0.623100
     20 S23          4.7400    -0.1320    -0.2350 ss         1 LOI       0.052600
     21 S24         -3.1250     0.4840    -1.3660 ss         1 LOI      -0.112300
     22 H4          -3.4480    -2.2690    -0.5190 ha         1 LOI       0.125000
     23 H5          -1.8500    -3.9670     0.1300 ha         1 LOI       0.122000
     24 H6          -0.3210     0.5790    -0.9930 ha         1 LOI       0.122000
     25 H7           6.7440     1.2940    -0.1230 h4         1 LOI       0.157000
     26 H8          -5.5990     3.0170     1.8690 h5         1 LOI       0.062100
     27 H1           4.8740     4.4380    -0.5290 hc         1 LOI       0.048033
     28 H1A          4.9620     4.2050     1.2110 hc         1 LOI       0.048033
     29 H1B          6.3790     3.8850     0.2080 hc         1 LOI       0.048033
     30 H2           1.2750    -5.5880     0.8330 h1         1 LOI       0.042700
     31 H2A         -0.2810    -5.0710     1.4740 h1         1 LOI       0.042700
     32 H2B         -0.1310    -5.5220    -0.2300 h1         1 LOI       0.042700
     33 H3          -4.6820     3.2080    -1.5720 h1         1 LOI       0.058700
     34 H3A         -5.8680     1.8850    -1.5430 h1         1 LOI       0.058700
     35 H3B         -6.1350     3.3370    -0.5750 h1         1 LOI       0.058700
     36 HN19         1.7420    -3.4670     0.2120 hn         1 LOI       0.531000
     37 HN20         1.3110     0.9910     0.0760 hn         1 LOI       0.348500
     38 C15          1.7450    -1.0060    -0.2640 c          1 LOI       0.640700
     39 C1           5.2940     3.8030     0.2520 c3         1 LOI      -0.118400
     40 C3          -5.3790     2.6530    -0.9470 c3         1 LOI       0.061900
@<TRIPOS>BOND
     1     1     2 ar  
     2     1     6 ar  
     3     1    22 1   
     4     2    10 ar  
     5     2    23 1   
     6     3     6 ar  
     7     3    11 ar  
     8     3    24 1   
     9     4     9 2   
    10     4    20 1   
    11     4    25 1   
    12     5    13 2   
    13     5    18 1   
    14     5    26 1   
    15     6    21 1   
    16     7    14 2   
    17     7    17 1   
    18     7    20 1   
    19     8    16 1   
    20     8    30 1   
    21     8    31 1   
    22     8    32 1   
    23     9    14 1   
    24     9    39 1   
    25    10    11 ar  
    26    10    16 1   
    27    11    38 1   
    28    12    15 2   
    29    12    18 1   
    30    12    21 1   
    31    13    15 1   
    32    16    36 1   
    33    17    37 1   
    34    17    38 1   
    35    18    40 1   
    36    19    38 2   
    37    27    39 1   
    38    28    39 1   
    39    29    39 1   
    40    33    40 1   
    41    34    40 1   
    42    35    40 1   
@<TRIPOS>SUBSTRUCTURE
     1 LOI         1 TEMP              0 ****  ****    0 ROOT
