@<TRIPOS>MOLECULE
LOJ
   47    50     1     0     0
SMALL
bcc


@<TRIPOS>ATOM
      1 C1           4.6250     0.1440     0.0160 ca         1 LOJ      -0.123000
      2 C2           4.8410    -1.0570    -0.6360 ca         1 LOJ       0.025400
      3 C3           3.7970    -1.9330    -0.8790 ca         1 LOJ      -0.122000
      4 C7          -3.4710    -0.5450    -0.5500 ca         1 LOJ      -0.139000
      5 C8          -4.4110    -1.4800    -0.1270 ca         1 LOJ      -0.120600
      6 C9          -4.1500    -2.2130     1.0260 ca         1 LOJ      -0.110000
      7 C10         -2.9740    -2.0070     1.7310 ca         1 LOJ      -0.156000
      8 C11          0.3070    -1.1620     1.5630 c3         1 LOJ       0.155400
      9 C12         -0.0380     0.1450    -0.5840 c3         1 LOJ       0.220800
     10 C13         -2.2890    -0.3060     0.1500 ca         1 LOJ       0.076600
     11 C14         -2.0530    -1.0570     1.3130 ca         1 LOJ       0.050100
     12 C15          0.8490    -0.0710     0.6460 c3         1 LOJ      -0.070400
     13 C19         -0.9780     3.0010    -0.8800 cy         1 LOJ      -0.084700
     14 C20         -1.5610     4.3530    -1.3410 cy         1 LOJ      -0.083900
     15 C21         -0.9310     4.9960    -0.0890 cy         1 LOJ      -0.100400
     16 N1          -1.3540     0.6560    -0.2480 nh         1 LOJ      -0.664000
     17 O1          -0.9630    -0.8290     2.0980 os         1 LOJ      -0.331900
     18 O2          -5.8390    -1.0080    -1.9490 o          1 LOJ      -0.824300
     19 O3          -6.4740    -2.5670    -0.4920 o          1 LOJ      -0.824300
     20 C17         -1.8300     1.7620    -1.0600 c3         1 LOJ       0.222800
     21 C18         -0.8290     3.5900     0.5330 cy         1 LOJ      -0.083900
     22 C4           2.5270    -1.5900    -0.4500 ca         1 LOJ      -0.114000
     23 C5           2.2560    -0.3960     0.2190 ca         1 LOJ      -0.046300
     24 C6           3.3390     0.4580     0.4310 ca         1 LOJ       0.036400
     25 CL1          3.1290     1.9820     1.2330 cl         1 LOJ      -0.105400
     26 CL2          6.4420    -1.4610    -1.1520 cl         1 LOJ      -0.118400
     27 H1           5.4430     0.8270     0.2000 ha         1 LOJ       0.155000
     28 H2           3.9660    -2.8690    -1.3950 ha         1 LOJ       0.148000
     29 H3          -3.6750     0.0060    -1.4590 ha         1 LOJ       0.149000
     30 H4          -4.8640    -2.9470     1.3740 ha         1 LOJ       0.149000
     31 H5          -2.7730    -2.5670     2.6360 ha         1 LOJ       0.117000
     32 H6           0.2550    -2.1240     1.0400 h1         1 LOJ       0.038200
     33 H7           0.9730    -1.2860     2.4180 h1         1 LOJ       0.038200
     34 H8           0.4590     0.8650    -1.2340 h1         1 LOJ       0.032200
     35 H9          -0.1080    -0.7870    -1.1610 h1         1 LOJ       0.032200
     36 H10          0.8460     0.8610     1.2140 hc         1 LOJ       0.088700
     37 H11          0.0120     2.8680    -1.3280 hc         1 LOJ       0.043700
     38 H12         -1.2630     4.7320    -2.3180 hc         1 LOJ       0.051200
     39 H13         -2.6520     4.3550    -1.2850 hc         1 LOJ       0.051200
     40 H14          0.0520     5.4170    -0.3030 hc         1 LOJ       0.038200
     41 H15         -1.5190     5.7450     0.4430 hc         1 LOJ       0.038200
     42 H17         -2.8450     1.9980    -0.7300 h1         1 LOJ       0.045200
     43 H18         -1.8970     1.5090    -2.1300 h1         1 LOJ       0.045200
     44 H19         -1.6960     3.3580     1.1550 hc         1 LOJ       0.051200
     45 H20          0.0740     3.3400     1.0900 hc         1 LOJ       0.051200
     46 H21          1.7190    -2.2820    -0.6520 ha         1 LOJ       0.149000
     47 C16         -5.6870    -1.7040    -0.9260 c          1 LOJ       0.922200
@<TRIPOS>BOND
     1     1     2 ar  
     2     1    24 ar  
     3     1    27 1   
     4     2     3 ar  
     5     2    26 1   
     6     3    22 ar  
     7     3    28 1   
     8     4     5 ar  
     9     4    10 ar  
    10     4    29 1   
    11     5     6 ar  
    12     5    47 1   
    13     6     7 ar  
    14     6    30 1   
    15     7    11 ar  
    16     7    31 1   
    17     8    12 1   
    18     8    17 1   
    19     8    32 1   
    20     8    33 1   
    21     9    12 1   
    22     9    16 1   
    23     9    34 1   
    24     9    35 1   
    25    10    11 ar  
    26    10    16 1   
    27    11    17 1   
    28    12    23 1   
    29    12    36 1   
    30    13    14 1   
    31    13    20 1   
    32    13    21 1   
    33    13    37 1   
    34    14    15 1   
    35    14    38 1   
    36    14    39 1   
    37    15    21 1   
    38    15    40 1   
    39    15    41 1   
    40    16    20 1   
    41    18    47 1   
    42    19    47 1   
    43    20    42 1   
    44    20    43 1   
    45    21    44 1   
    46    21    45 1   
    47    22    23 ar  
    48    22    46 1   
    49    23    24 ar  
    50    24    25 1   
@<TRIPOS>SUBSTRUCTURE
     1 LOJ         1 TEMP              0 ****  ****    0 ROOT
