@<TRIPOS>MOLECULE
LOJ
   47    50     1     0     0
SMALL
No Charge or Current Charge


@<TRIPOS>ATOM
      1 C1           4.6950     0.4250    -0.2250 ca         1 LOJ      -0.105000
      2 C2           5.1000    -0.8580    -0.6160 ca         1 LOJ       0.117000
      3 C3           4.1590    -1.8920    -0.7100 ca         1 LOJ      -0.104000
      4 C7          -3.5410    -0.6130    -0.6970 ca         1 LOJ      -0.121000
      5 C8          -4.5870    -1.2750    -0.0110 ca         1 LOJ      -0.120600
      6 C9          -4.3520    -1.7080     1.3120 ca         1 LOJ      -0.092000
      7 C10         -3.1050    -1.4970     1.9210 ca         1 LOJ      -0.138000
      8 C11          0.3790    -1.1340     1.3620 c3         1 LOJ       0.178600
      9 C12          0.0680    -0.1720    -0.9820 c3         1 LOJ       0.220800
     10 C13         -2.2830    -0.3880    -0.1000 ca         1 LOJ       0.215000
     11 C14         -2.0640    -0.8600     1.2270 ca         1 LOJ       0.050100
     12 C15          0.8960    -0.1260     0.3140 c3         1 LOJ      -0.070400
     13 C19         -0.9680     2.8260    -0.6990 cy         1 LOJ      -0.084700
     14 C20         -1.4670     4.2790    -1.0070 cy         1 LOJ      -0.083900
     15 C21         -1.0410     4.6130     0.4610 cy         1 LOJ      -0.100400
     16 N1          -1.3070     0.3360    -0.8340 nh         1 LOJ      -0.802400
     17 O1          -0.8750    -0.6910     1.9120 os         1 LOJ      -0.355100
     18 O2          -6.1020    -1.1080    -1.8220 o          1 LOJ      -0.719000
     19 O3          -6.8100    -2.0860    -0.0460 o          1 LOJ      -0.719000
     20 C17         -1.6290     1.6500    -1.4420 c3         1 LOJ       0.222800
     21 C18         -1.4080     3.1260     0.7760 cy         1 LOJ      -0.083900
     22 C4           2.8090    -1.6440    -0.4070 ca         1 LOJ      -0.096000
     23 C5           2.3830    -0.3580    -0.0010 ca         1 LOJ      -0.046300
     24 C6           3.3470     0.6820     0.0790 ca         1 LOJ       0.128000
     25 Cl1          2.9210     2.3310     0.5470 cl         1 LOJ      -0.197000
     26 Cl2          6.7890    -1.1680    -0.9960 cl         1 LOJ      -0.210000
     27 H1           5.4260     1.2260    -0.1600 ha         1 LOJ       0.137000
     28 H2           4.4740    -2.8850    -1.0190 ha         1 LOJ       0.130000
     29 H3          -3.7050    -0.2680    -1.7140 ha         1 LOJ       0.131000
     30 H4          -5.1350    -2.2120     1.8740 ha         1 LOJ       0.131000
     31 H5          -2.9420    -1.8380     2.9400 ha         1 LOJ       0.099000
     32 H6           0.2790    -2.1360     0.9240 h1         1 LOJ       0.038200
     33 H7           1.1200    -1.1970     2.1690 h1         1 LOJ       0.038200
     34 H8           0.5920     0.4220    -1.7440 h1         1 LOJ       0.032200
     35 H9           0.0380    -1.2030    -1.3600 h1         1 LOJ       0.032200
     36 H10          0.7560     0.8640     0.7530 hc         1 LOJ       0.088700
     37 H11          0.1180     2.7250    -0.8120 hc         1 LOJ       0.043700
     38 H12         -0.9280     4.8130    -1.7970 hc         1 LOJ       0.051200
     39 H13         -2.5440     4.3650    -1.2000 hc         1 LOJ       0.051200
     40 H14          0.0210     4.8570     0.5840 hc         1 LOJ       0.038200
     41 H15         -1.6380     5.3750     0.9730 hc         1 LOJ       0.038200
     42 H17         -2.7140     1.8220    -1.4340 h1         1 LOJ       0.045200
     43 H18         -1.3050     1.6740    -2.4920 h1         1 LOJ       0.045200
     44 H19         -2.4710     2.9500     0.9810 hc         1 LOJ       0.051200
     45 H20         -0.8180     2.6410     1.5610 hc         1 LOJ       0.051200
     46 H21          2.0940    -2.4590    -0.4960 ha         1 LOJ       0.131000
     47 C16         -5.9360    -1.5070    -0.6780 c          1 LOJ       0.711600
@<TRIPOS>BOND
     1     1     2 ar  
     2     1    24 ar  
     3     1    27 1   
     4     2     3 ar  
     5     2    26 1   
     6     3    22 ar  
     7     3    28 1   
     8     4     5 ar  
     9     4    10 ar  
    10     4    29 1   
    11     5     6 ar  
    12     5    47 1   
    13     6     7 ar  
    14     6    30 1   
    15     7    11 ar  
    16     7    31 1   
    17     8    12 1   
    18     8    17 1   
    19     8    32 1   
    20     8    33 1   
    21     9    12 1   
    22     9    16 1   
    23     9    34 1   
    24     9    35 1   
    25    10    11 ar  
    26    10    16 1   
    27    11    17 1   
    28    12    23 1   
    29    12    36 1   
    30    13    14 1   
    31    13    20 1   
    32    13    21 1   
    33    13    37 1   
    34    14    15 1   
    35    14    38 1   
    36    14    39 1   
    37    15    21 1   
    38    15    40 1   
    39    15    41 1   
    40    16    20 1   
    41    18    47 1   
    42    19    47 1   
    43    20    42 1   
    44    20    43 1   
    45    21    44 1   
    46    21    45 1   
    47    22    23 ar  
    48    22    46 1   
    49    23    24 ar  
    50    24    25 1   
@<TRIPOS>SUBSTRUCTURE
     1 LOJ         1 TEMP              0 ****  ****    0 ROOT
