@<TRIPOS>MOLECULE
LOK
   28    28     1     0     0
SMALL
bcc


@<TRIPOS>ATOM
      1 N1           2.0480     0.4410     0.0430 ns         1 LOK      -0.465600
      2 C4           0.2270    -2.7790    -0.1060 ca         1 LOK      -0.072000
      3 C5           1.3080    -1.9090    -0.0710 ca         1 LOK      -0.198500
      4 C6           1.0570    -0.5400    -0.0070 ca         1 LOK       0.118600
      5 C7          -0.2590    -0.0660     0.0210 ca         1 LOK      -0.220000
      6 C8           3.3960     0.2880    -0.0320 c          1 LOK       0.762600
      7 C           -5.2310     1.8520     0.0250 c3         1 LOK       0.148700
      8 O           -4.5170     0.6190     0.0200 os         1 LOK      -0.435400
      9 C1          -3.1870     0.6910     0.0150 c          1 LOK       0.762600
     10 C2          -1.3290    -0.9520    -0.0170 ca         1 LOK       0.118600
     11 C3          -1.0770    -2.3250    -0.0810 ca         1 LOK      -0.198500
     12 C9           5.4050     1.5080    -0.0000 c3         1 LOK       0.148700
     13 O1          -2.5620     1.7270     0.0180 o          1 LOK      -0.572500
     14 O2           3.9950    -0.7550    -0.1590 o          1 LOK      -0.572500
     15 O3           3.9810     1.4820     0.0570 os         1 LOK      -0.435400
     16 H1           1.7160     1.3900     0.1330 hn         1 LOK       0.335500
     17 H2           0.4120    -3.8440    -0.1540 ha         1 LOK       0.134000
     18 H3           2.3110    -2.3010    -0.0920 ha         1 LOK       0.150500
     19 H4          -0.4270     0.9990     0.0740 ha         1 LOK       0.165000
     20 H5          -3.3360    -1.3200    -0.0020 hn         1 LOK       0.335500
     21 H6          -5.0110     2.4410     0.9140 h1         1 LOK       0.050700
     22 H7          -5.0150     2.4450    -0.8640 h1         1 LOK       0.050700
     23 H8          -6.2830     1.5830     0.0270 h1         1 LOK       0.050700
     24 H9          -1.8990    -3.0290    -0.1110 ha         1 LOK       0.150500
     25 H10          5.8500     0.9340     0.8120 h1         1 LOK       0.050700
     26 H11          5.7760     1.1330    -0.9540 h1         1 LOK       0.050700
     27 H12          5.6840     2.5520     0.1060 h1         1 LOK       0.050700
     28 N           -2.6680    -0.5640     0.0060 ns         1 LOK      -0.465600
@<TRIPOS>BOND
     1     1     4 1   
     2     1     6 1   
     3     1    16 1   
     4     2     3 ar  
     5     2    11 ar  
     6     2    17 1   
     7     3     4 ar  
     8     3    18 1   
     9     4     5 ar  
    10     5    10 ar  
    11     5    19 1   
    12     6    14 2   
    13     6    15 1   
    14     7     8 1   
    15     7    21 1   
    16     7    22 1   
    17     7    23 1   
    18     8     9 1   
    19     9    13 2   
    20     9    28 1   
    21    10    11 ar  
    22    10    28 1   
    23    11    24 1   
    24    12    15 1   
    25    12    25 1   
    26    12    26 1   
    27    12    27 1   
    28    20    28 1   
@<TRIPOS>SUBSTRUCTURE
     1 LOK         1 TEMP              0 ****  ****    0 ROOT
