@<TRIPOS>MOLECULE
LOK
   28    28     1     0     0
SMALL
No Charge or Current Charge


@<TRIPOS>ATOM
      1 N1           2.1440     0.3840    -0.0100 ns         1 LOK      -0.139500
      2 C4           0.2030    -2.8380    -0.1040 ca         1 LOK      -0.054000
      3 C5           1.2960    -1.9580    -0.0800 ca         1 LOK      -0.180500
      4 C6           1.0860    -0.5640    -0.0360 ca         1 LOK       0.026000
      5 C7          -0.2330    -0.0710    -0.0170 ca         1 LOK      -0.202000
      6 C8           3.5190     0.2450    -0.0180 c          1 LOK       0.646600
      7 C           -5.4110     1.8270     0.0570 c3         1 LOK       0.171900
      8 O           -4.6200     0.6240     0.0170 os         1 LOK      -0.458600
      9 C1          -3.2570     0.7530     0.0180 c          1 LOK       0.646600
     10 C2          -1.3390    -0.9480    -0.0410 ca         1 LOK       0.026000
     11 C3          -1.1070    -2.3330    -0.0840 ca         1 LOK      -0.180500
     12 C9           5.5270     1.5710     0.0170 c3         1 LOK       0.171900
     13 O1          -2.6600     1.8210     0.0500 o          1 LOK      -0.523500
     14 O2           4.1460    -0.8060    -0.0530 o          1 LOK      -0.523500
     15 O3           4.0890     1.4880     0.0190 os         1 LOK      -0.458600
     16 H1           1.8360     1.3470     0.0210 hn         1 LOK       0.169000
     17 H2           0.3700    -3.9130    -0.1370 ha         1 LOK       0.116000
     18 H3           2.2950    -2.3810    -0.0950 ha         1 LOK       0.132500
     19 H4          -0.3790     1.0040     0.0170 ha         1 LOK       0.147000
     20 H5          -3.3690    -1.2550    -0.0460 hn         1 LOK       0.169000
     21 H6          -5.1990     2.4050     0.9660 h1         1 LOK       0.050700
     22 H7          -5.2040     2.4610    -0.8150 h1         1 LOK       0.050700
     23 H8          -6.4800     1.5810     0.0520 h1         1 LOK       0.050700
     24 H9          -1.9450    -3.0270    -0.1040 ha         1 LOK       0.132500
     25 H10          5.9510     1.0590     0.8910 h1         1 LOK       0.050700
     26 H11          5.9450     1.1140    -0.8900 h1         1 LOK       0.050700
     27 H12          5.8500     2.6190     0.0490 h1         1 LOK       0.050700
     28 N           -2.6900    -0.5070    -0.0240 ns         1 LOK      -0.139500
@<TRIPOS>BOND
     1     1     4 1   
     2     1     6 1   
     3     1    16 1   
     4     2     3 ar  
     5     2    11 ar  
     6     2    17 1   
     7     3     4 ar  
     8     3    18 1   
     9     4     5 ar  
    10     5    10 ar  
    11     5    19 1   
    12     6    14 2   
    13     6    15 1   
    14     7     8 1   
    15     7    21 1   
    16     7    22 1   
    17     7    23 1   
    18     8     9 1   
    19     9    13 2   
    20     9    28 1   
    21    10    11 ar  
    22    10    28 1   
    23    11    24 1   
    24    12    15 1   
    25    12    25 1   
    26    12    26 1   
    27    12    27 1   
    28    20    28 1   
@<TRIPOS>SUBSTRUCTURE
     1 LOK         1 TEMP              0 ****  ****    0 ROOT
