@<TRIPOS>MOLECULE
LOL
   24    23     1     0     0
SMALL
No Charge or Current Charge


@<TRIPOS>ATOM
      1 CD1         -3.2150    -0.4350    -0.8280 c3         1 LOL      -0.090100
      2 CD2         -2.2840    -0.1270     1.5190 c3         1 LOL      -0.090100
      3 CG          -2.0830     0.1910     0.0180 c3         1 LOL      -0.061700
      4 CB          -0.6870    -0.2570    -0.5120 c3         1 LOL      -0.113400
      5 N            0.4890     1.8620     0.0450 n8         1 LOL      -0.866800
      6 CA           0.5560     0.3800     0.1780 c3         1 LOL       0.134500
      7 C            1.9160    -0.2170    -0.3590 c3         1 LOL       0.341900
      8 O            3.0360     0.3470     0.3080 oh         1 LOL      -0.611300
      9 OXT          2.0070    -1.6150    -0.1340 oh         1 LOL      -0.611300
     10 HD11        -3.1060    -0.1650    -1.8850 hc         1 LOL       0.034867
     11 HD12        -3.2040    -1.5290    -0.7500 hc         1 LOL       0.034867
     12 HD13        -4.1960    -0.0780    -0.4890 hc         1 LOL       0.034867
     13 HD21        -2.1580    -1.1990     1.7120 hc         1 LOL       0.034867
     14 HD22        -1.5690     0.4230     2.1410 hc         1 LOL       0.034867
     15 HD23        -3.2910     0.1620     1.8430 hc         1 LOL       0.034867
     16 HG          -2.1680     1.2780    -0.1030 hc         1 LOL       0.037700
     17 HB3         -0.6250    -1.3480    -0.4180 hc         1 LOL       0.049700
     18 HB2         -0.6310    -0.0450    -1.5880 hc         1 LOL       0.049700
     19 H            0.5100     2.1110    -0.9480 hn         1 LOL       0.337800
     20 H2          -0.4300     2.1800     0.3660 hn         1 LOL       0.337800
     21 HA           0.5080     0.1480     1.2510 h1         1 LOL       0.069700
     22 HC           2.0040    -0.0210    -1.4370 h2         1 LOL       0.054700
     23 HO           3.7880     0.2620    -0.3130 ho         1 LOL       0.410500
     24 HXT          1.6900    -1.7620     0.7800 ho         1 LOL       0.410500
@<TRIPOS>BOND
     1     1     3 1   
     2     1    10 1   
     3     1    11 1   
     4     1    12 1   
     5     2     3 1   
     6     2    13 1   
     7     2    14 1   
     8     2    15 1   
     9     3     4 1   
    10     3    16 1   
    11     4     6 1   
    12     4    17 1   
    13     4    18 1   
    14     5     6 1   
    15     5    19 1   
    16     5    20 1   
    17     6     7 1   
    18     6    21 1   
    19     7     8 1   
    20     7     9 1   
    21     7    22 1   
    22     8    23 1   
    23     9    24 1   
@<TRIPOS>SUBSTRUCTURE
     1 LOL         1 TEMP              0 ****  ****    0 ROOT
