@<TRIPOS>MOLECULE
LOL
   24    23     1     0     0
SMALL
bcc


@<TRIPOS>ATOM
      1 CD1         -3.1510    -0.5220    -0.8050 c3         1 LOL      -0.090100
      2 CD2         -2.2490     0.0200     1.4710 c3         1 LOL      -0.090100
      3 CG          -2.0510     0.1990    -0.0310 c3         1 LOL      -0.061700
      4 CB          -0.6810    -0.2990    -0.4950 c3         1 LOL      -0.113400
      5 N            0.5190     1.8140     0.1310 n8         1 LOL      -0.866800
      6 CA           0.5170     0.3600     0.1980 c3         1 LOL       0.134500
      7 C            1.8350    -0.1610    -0.3830 c3         1 LOL       0.341900
      8 O            2.8810     0.3700     0.3710 oh         1 LOL      -0.611300
      9 OXT          1.8880    -1.5590    -0.4320 oh         1 LOL      -0.611300
     10 HD11        -3.0430    -0.3730    -1.8820 hc         1 LOL       0.034867
     11 HD12        -3.1200    -1.5980    -0.6170 hc         1 LOL       0.034867
     12 HD13        -4.1400    -0.1630    -0.5180 hc         1 LOL       0.034867
     13 HD21        -2.1200    -1.0260     1.7610 hc         1 LOL       0.034867
     14 HD22        -1.5440     0.6120     2.0570 hc         1 LOL       0.034867
     15 HD23        -3.2530     0.3250     1.7710 hc         1 LOL       0.034867
     16 HG          -2.1340     1.2670    -0.2620 hc         1 LOL       0.037700
     17 HB3         -0.6440    -1.3820    -0.3450 hc         1 LOL       0.049700
     18 HB2         -0.5970    -0.1400    -1.5780 hc         1 LOL       0.049700
     19 H            0.4000     2.1110    -0.8320 hn         1 LOL       0.337800
     20 H2          -0.2860     2.1780     0.6260 hn         1 LOL       0.337800
     21 HA           0.5030     0.0860     1.2610 h1         1 LOL       0.069700
     22 HC           1.9110     0.1520    -1.4340 h2         1 LOL       0.054700
     23 HO           3.7100     0.1850    -0.0830 ho         1 LOL       0.410500
     24 HXT          1.7020    -1.9100     0.4470 ho         1 LOL       0.410500
@<TRIPOS>BOND
     1     1     3 1   
     2     1    10 1   
     3     1    11 1   
     4     1    12 1   
     5     2     3 1   
     6     2    13 1   
     7     2    14 1   
     8     2    15 1   
     9     3     4 1   
    10     3    16 1   
    11     4     6 1   
    12     4    17 1   
    13     4    18 1   
    14     5     6 1   
    15     5    19 1   
    16     5    20 1   
    17     6     7 1   
    18     6    21 1   
    19     7     8 1   
    20     7     9 1   
    21     7    22 1   
    22     8    23 1   
    23     9    24 1   
@<TRIPOS>SUBSTRUCTURE
     1 LOL         1 TEMP              0 ****  ****    0 ROOT
