@<TRIPOS>MOLECULE
LOM
    8     8     1     0     0
SMALL
abcg2


@<TRIPOS>ATOM
      1 C1           1.1690    -0.0260     0.0650 cc         1 LOM       0.411300
      2 N1           0.8830    -0.0240    -1.1960 nd         1 LOM      -0.633000
      3 C2          -0.4690     0.0140    -1.3860 cd         1 LOM       0.271900
      4 C3          -1.2190     0.0410    -0.2540 cc         1 LOM      -0.268000
      5 S1          -0.1910     0.0180     1.1140 ss         1 LOM      -0.038400
      6 H1           2.1750    -0.0540     0.4600 h5         1 LOM       0.052100
      7 H2          -0.8710     0.0210    -2.3890 h4         1 LOM       0.043100
      8 H3          -2.2930     0.0720    -0.1620 h4         1 LOM       0.162000
@<TRIPOS>BOND
     1     1     2 2   
     2     1     5 1   
     3     1     6 1   
     4     2     3 1   
     5     3     4 2   
     6     3     7 1   
     7     4     5 1   
     8     4     8 1   
@<TRIPOS>SUBSTRUCTURE
     1 LOM         1 TEMP              0 ****  ****    0 ROOT
