@<TRIPOS>MOLECULE
LOM
    8     8     1     0     0
SMALL
No Charge or Current Charge


@<TRIPOS>ATOM
      1 C1           1.1750    -0.0270     0.0710 cc         1 LOM       0.411300
      2 N1           0.8970    -0.0250    -1.2290 nd         1 LOM      -0.633000
      3 C2          -0.4780     0.0140    -1.4140 cd         1 LOM       0.271900
      4 C3          -1.2160     0.0410    -0.2540 cc         1 LOM      -0.268000
      5 S1          -0.1930     0.0180     1.1530 ss         1 LOM      -0.038400
      6 H1           2.1750    -0.0530     0.4860 h5         1 LOM       0.052100
      7 H2          -0.8830     0.0210    -2.4190 h4         1 LOM       0.043100
      8 H3          -2.2920     0.0720    -0.1420 h4         1 LOM       0.162000
@<TRIPOS>BOND
     1     1     2 2   
     2     1     5 1   
     3     1     6 1   
     4     2     3 1   
     5     3     4 2   
     6     3     7 1   
     7     4     5 1   
     8     4     8 1   
@<TRIPOS>SUBSTRUCTURE
     1 LOM         1 TEMP              0 ****  ****    0 ROOT
