@<TRIPOS>MOLECULE
LON
   52    54     1     0     0
SMALL
No Charge or Current Charge


@<TRIPOS>ATOM
      1 C01          0.4970     4.1840     2.3060 c3         1 LON       0.145100
      2 N02          1.3120     3.1480     1.6370 n7         1 LON      -0.862400
      3 C03          0.6010     2.2590     0.6810 c3         1 LON       0.196700
      4 C04          0.0790     3.0510    -0.5430 c3         1 LON      -0.065400
      5 C05         -0.5050     2.1350    -1.6380 c3         1 LON      -0.035100
      6 C06         -1.3730     1.0280    -1.0430 ca         1 LON      -0.022300
      7 C07         -2.7610     1.0850    -1.2370 ca         1 LON      -0.198000
      8 C08         -3.6030     0.0740    -0.7350 ca         1 LON       0.139100
      9 O09         -4.9750     0.1110    -0.9350 os         1 LON      -0.323100
     10 C10         -5.6280     1.1670    -1.6600 c3         1 LON       0.144900
     11 C11         -3.0580    -1.0060    -0.0070 ca         1 LON       0.045100
     12 O12         -3.9680    -1.9590     0.4570 os         1 LON      -0.337100
     13 C13         -3.6130    -3.2180     1.0560 c3         1 LON       0.149900
     14 C14         -1.6480    -1.0510     0.2220 ca         1 LON       0.125100
     15 O15         -1.1050    -2.0350     1.0240 os         1 LON      -0.357100
     16 C16         -0.5600    -1.6900     2.3100 c3         1 LON       0.152900
     17 C17         -0.7920    -0.0490    -0.3260 ca         1 LON      -0.105800
     18 C18          0.6900    -0.1160    -0.1770 cc         1 LON      -0.054200
     19 C19          1.1640    -1.3360    -0.6550 cd         1 LON      -0.084000
     20 C20          2.5020    -1.8440    -0.7810 cd         1 LON      -0.286000
     21 C21          3.6930    -1.1860    -0.4970 cc         1 LON       0.076900
     22 O22          4.8500    -1.9390    -0.7030 os         1 LON      -0.307100
     23 C23          4.9040    -3.3090    -1.1550 c3         1 LON       0.140900
     24 C24          3.9110     0.2110    -0.0350 c          1 LON       0.571500
     25 O25          5.0570     0.6260     0.1200 o          1 LON      -0.525100
     26 C26          2.8280     1.1540     0.2570 cd         1 LON      -0.299200
     27 C27          1.4470     1.0590     0.2350 cc         1 LON       0.012800
     28 H1           1.1050     4.7370     3.0350 h1         1 LON       0.032033
     29 H2           0.1020     4.9110     1.5840 h1         1 LON       0.032033
     30 H3          -0.3490     3.7330     2.8420 h1         1 LON       0.032033
     31 H4           1.7020     2.5460     2.3730 hn         1 LON       0.415000
     32 H6          -0.2720     1.8590     1.2160 h1         1 LON       0.036700
     33 H7          -0.7030     3.7460    -0.2180 hc         1 LON       0.053700
     34 H8           0.8900     3.6520    -0.9730 hc         1 LON       0.053700
     35 H9          -1.0720     2.7480    -2.3490 hc         1 LON       0.055700
     36 H10          0.3140     1.6940    -2.2200 hc         1 LON       0.055700
     37 H11         -3.1720     1.9220    -1.7920 ha         1 LON       0.121000
     38 H12         -6.7100     0.9910    -1.6940 h1         1 LON       0.042367
     39 H13         -5.4570     2.1370    -1.1760 h1         1 LON       0.042367
     40 H14         -5.2600     1.2170    -2.6930 h1         1 LON       0.042367
     41 H15         -4.5130    -3.8240     1.2170 h1         1 LON       0.036700
     42 H16         -2.9360    -3.7850     0.4050 h1         1 LON       0.036700
     43 H17         -3.1360    -3.0700     2.0330 h1         1 LON       0.036700
     44 H18          0.2860    -0.9990     2.2190 h1         1 LON       0.039033
     45 H19         -1.3250    -1.2160     2.9370 h1         1 LON       0.039033
     46 H20         -0.2060    -2.5920     2.8260 h1         1 LON       0.039033
     47 H22          0.4130    -2.0440    -0.9960 ha         1 LON       0.185000
     48 H24          2.5210    -2.8590    -1.1570 ha         1 LON       0.179000
     49 H25          5.9470    -3.6450    -1.2130 h1         1 LON       0.045700
     50 H26          4.3770    -3.9740    -0.4590 h1         1 LON       0.045700
     51 H27          4.4640    -3.4120    -2.1550 h1         1 LON       0.045700
     52 H28          3.2660     2.1010     0.5480 ha         1 LON       0.219000
@<TRIPOS>BOND
     1     1     2 1   
     2     1    28 1   
     3     1    29 1   
     4     1    30 1   
     5     2     3 1   
     6     2    31 1   
     7     3     4 1   
     8     3    27 1   
     9     3    32 1   
    10     4     5 1   
    11     4    33 1   
    12     4    34 1   
    13     5     6 1   
    14     5    35 1   
    15     5    36 1   
    16     6     7 ar  
    17     6    17 ar  
    18     7     8 ar  
    19     7    37 1   
    20     8     9 1   
    21     8    11 ar  
    22     9    10 1   
    23    10    38 1   
    24    10    39 1   
    25    10    40 1   
    26    11    12 1   
    27    11    14 ar  
    28    12    13 1   
    29    13    41 1   
    30    13    42 1   
    31    13    43 1   
    32    14    15 1   
    33    14    17 ar  
    34    15    16 1   
    35    16    44 1   
    36    16    45 1   
    37    16    46 1   
    38    17    18 1   
    39    18    19 2   
    40    18    27 1   
    41    19    20 1   
    42    19    47 1   
    43    20    21 2   
    44    20    48 1   
    45    21    22 1   
    46    21    24 1   
    47    22    23 1   
    48    23    49 1   
    49    23    50 1   
    50    23    51 1   
    51    24    25 2   
    52    24    26 1   
    53    26    27 2   
    54    26    52 1   
@<TRIPOS>SUBSTRUCTURE
     1 LON         1 TEMP              0 ****  ****    0 ROOT
