@<TRIPOS>MOLECULE
LON
   52    54     1     0     0
SMALL
abcg2


@<TRIPOS>ATOM
      1 C01          0.6100     4.1780     2.0060 c3         1 LON       0.145100
      2 N02          1.3910     3.0710     1.4840 n7         1 LON      -0.862400
      3 C03          0.6320     2.1630     0.6460 c3         1 LON       0.196700
      4 C04          0.0850     2.8940    -0.5900 c3         1 LON      -0.065400
      5 C05         -0.5090     1.9560    -1.6460 c3         1 LON      -0.035100
      6 C06         -1.3750     0.9050    -1.0130 ca         1 LON      -0.022300
      7 C07         -2.7590     0.9690    -1.1200 ca         1 LON      -0.198000
      8 C08         -3.5660     0.0350    -0.4780 ca         1 LON       0.139100
      9 O09         -4.9070     0.0130    -0.5380 os         1 LON      -0.323100
     10 C10         -5.5650     1.0290    -1.2690 c3         1 LON       0.144900
     11 C11         -2.9710    -0.9560     0.3120 ca         1 LON       0.045100
     12 O12         -3.7490    -1.8280     1.0030 os         1 LON      -0.337100
     13 C13         -4.0260    -3.0370     0.3080 c3         1 LON       0.149900
     14 C14         -1.5850    -1.0220     0.4080 ca         1 LON       0.125100
     15 O15         -1.0470    -2.0030     1.1790 os         1 LON      -0.357100
     16 C16         -0.7090    -1.5820     2.4920 c3         1 LON       0.152900
     17 C17         -0.7680    -0.1030    -0.2600 ca         1 LON      -0.105800
     18 C18          0.7150    -0.1950    -0.2000 cc         1 LON      -0.054200
     19 C19          1.2700    -1.3860    -0.5720 cd         1 LON      -0.084000
     20 C20          2.6130    -1.8200    -0.6510 cd         1 LON      -0.286000
     21 C21          3.7830    -1.1450    -0.4680 cc         1 LON       0.076900
     22 O22          4.9760    -1.7180    -0.6010 os         1 LON      -0.307100
     23 C23          5.0720    -3.0970    -0.9090 c3         1 LON       0.140900
     24 C24          3.9410     0.2840    -0.1420 c          1 LON       0.571500
     25 O25          5.0740     0.7590    -0.1280 o          1 LON      -0.525100
     26 C26          2.8150     1.1190     0.2000 cd         1 LON      -0.299200
     27 C27          1.4610     0.9630     0.2060 cc         1 LON       0.012800
     28 H1           1.1860     4.6790     2.7820 h1         1 LON       0.032033
     29 H2           0.4060     4.9140     1.2280 h1         1 LON       0.032033
     30 H3          -0.3530     3.8780     2.4420 h1         1 LON       0.032033
     31 H4           1.7560     2.5460     2.2690 hn         1 LON       0.415000
     32 H6          -0.2340     1.7680     1.2020 h1         1 LON       0.036700
     33 H7          -0.6830     3.6020    -0.2720 hc         1 LON       0.053700
     34 H8           0.8960     3.4750    -1.0390 hc         1 LON       0.053700
     35 H9          -1.0860     2.5450    -2.3610 hc         1 LON       0.055700
     36 H10          0.2960     1.4820    -2.2130 hc         1 LON       0.055700
     37 H11         -3.1930     1.7620    -1.7150 ha         1 LON       0.121000
     38 H12         -6.6310     0.8370    -1.1710 h1         1 LON       0.042367
     39 H13         -5.3490     2.0230    -0.8710 h1         1 LON       0.042367
     40 H14         -5.2990     1.0060    -2.3290 h1         1 LON       0.042367
     41 H15         -4.6520    -3.6460     0.9590 h1         1 LON       0.036700
     42 H16         -4.5640    -2.8530    -0.6240 h1         1 LON       0.036700
     43 H17         -3.1120    -3.5910     0.0820 h1         1 LON       0.036700
     44 H18          0.0290    -0.7750     2.4810 h1         1 LON       0.039033
     45 H19         -1.5900    -1.2430     3.0420 h1         1 LON       0.039033
     46 H20         -0.2790    -2.4400     3.0060 h1         1 LON       0.039033
     47 H22          0.5700    -2.1580    -0.8630 ha         1 LON       0.185000
     48 H24          2.6940    -2.8620    -0.9310 ha         1 LON       0.179000
     49 H25          6.1340    -3.3240    -0.9510 h1         1 LON       0.045700
     50 H26          4.6060    -3.7170    -0.1400 h1         1 LON       0.045700
     51 H27          4.6210    -3.3280    -1.8770 h1         1 LON       0.045700
     52 H28          3.1510     2.1000     0.5180 ha         1 LON       0.219000
@<TRIPOS>BOND
     1     1     2 1   
     2     1    28 1   
     3     1    29 1   
     4     1    30 1   
     5     2     3 1   
     6     2    31 1   
     7     3     4 1   
     8     3    27 1   
     9     3    32 1   
    10     4     5 1   
    11     4    33 1   
    12     4    34 1   
    13     5     6 1   
    14     5    35 1   
    15     5    36 1   
    16     6     7 ar  
    17     6    17 ar  
    18     7     8 ar  
    19     7    37 1   
    20     8     9 1   
    21     8    11 ar  
    22     9    10 1   
    23    10    38 1   
    24    10    39 1   
    25    10    40 1   
    26    11    12 1   
    27    11    14 ar  
    28    12    13 1   
    29    13    41 1   
    30    13    42 1   
    31    13    43 1   
    32    14    15 1   
    33    14    17 ar  
    34    15    16 1   
    35    16    44 1   
    36    16    45 1   
    37    16    46 1   
    38    17    18 1   
    39    18    19 2   
    40    18    27 1   
    41    19    20 1   
    42    19    47 1   
    43    20    21 2   
    44    20    48 1   
    45    21    22 1   
    46    21    24 1   
    47    22    23 1   
    48    23    49 1   
    49    23    50 1   
    50    23    51 1   
    51    24    25 2   
    52    24    26 1   
    53    26    27 2   
    54    26    52 1   
@<TRIPOS>SUBSTRUCTURE
     1 LON         1 TEMP              0 ****  ****    0 ROOT
