@<TRIPOS>MOLECULE
LOO
   55    57     1     0     0
SMALL
No Charge or Current Charge


@<TRIPOS>ATOM
      1 C15         19.6810    -0.7290    13.0390 ca         1 LOO      -0.091500
      2 C17         21.9020     0.2620    12.8570 ca         1 LOO       0.182100
      3 C20         23.6820    -0.8170    11.3580 c3         1 LOO      -0.041800
      4 C21         20.1750     1.3070    14.4480 c3         1 LOO      -0.041800
      5 C24         24.3170     2.7730    12.1400 c3         1 LOO      -0.085100
      6 C1          16.6020    -2.3700     4.7760 ca         1 LOO      -0.030500
      7 C2          17.8190    -2.4750     4.0740 ca         1 LOO      -0.237300
      8 C3          19.0250    -2.4350     4.8010 ca         1 LOO      -0.030500
      9 C4          19.0120    -2.2900     6.1980 ca         1 LOO      -0.164000
     10 C5          17.8000    -2.1250     6.9010 ca         1 LOO       0.043000
     11 C6          16.5960    -2.2230     6.1730 ca         1 LOO      -0.164000
     12 C8          16.6680    -1.4790     9.1250 c5         1 LOO      -0.008000
     13 C9          17.0790    -1.6710    10.5980 c          1 LOO       0.566000
     14 C11         18.6860    -2.6790     9.2280 c          1 LOO       0.627000
     15 C12         19.0300    -2.7880    11.7020 c3         1 LOO       0.177300
     16 C14         20.0420    -1.7290    12.1200 ca         1 LOO      -0.168300
     17 C16         20.6020     0.2650    13.4210 ca         1 LOO      -0.105300
     18 C18         22.2790    -0.7620    11.9550 ca         1 LOO      -0.105300
     19 C19         21.3410    -1.7440    11.5870 ca         1 LOO      -0.091500
     20 C25         21.9000     2.6350    11.3660 c3         1 LOO      -0.085100
     21 C31         22.5230     3.7030    13.6650 c          1 LOO       0.717000
     22 F27         16.7350    -3.2730     2.0870 f          1 LOO      -0.117667
     23 F29         17.8630    -1.4200     1.9370 f          1 LOO      -0.117667
     24 F30         18.9030    -3.3220     2.1070 f          1 LOO      -0.117667
     25 N7          17.7520    -2.1240     8.3420 n          1 LOO      -0.232400
     26 N10         18.2630    -2.3900    10.5100 n          1 LOO      -0.374400
     27 O22         22.8320     1.2310    13.1990 os         1 LOO      -0.376100
     28 O32         22.6470     3.4590    14.8600 o          1 LOO      -0.714000
     29 O33         22.0970     4.7800    13.2640 o          1 LOO      -0.714000
     30 H1          18.6770    -0.7250    13.4600 ha         1 LOO       0.106500
     31 H2          23.7750    -0.1270    10.5120 hc         1 LOO       0.046533
     32 H3          24.4460    -0.5490    12.0980 hc         1 LOO       0.046533
     33 H4          23.9260    -1.8210    10.9940 hc         1 LOO       0.046533
     34 H5          20.0490     2.2920    13.9870 hc         1 LOO       0.046533
     35 H6          19.2220     1.0440    14.9210 hc         1 LOO       0.046533
     36 H7          20.9170     1.3940    15.2510 hc         1 LOO       0.046533
     37 H8          25.0080     2.6860    12.9870 hc         1 LOO       0.027700
     38 H9          24.6010     2.0280    11.3870 hc         1 LOO       0.027700
     39 H10         24.4500     3.7670    11.6970 hc         1 LOO       0.027700
     40 H11         15.6520    -2.4110     4.2440 ha         1 LOO       0.127500
     41 H12         19.9820    -2.5200     4.2880 ha         1 LOO       0.127500
     42 H13         19.9630    -2.2670     6.7220 ha         1 LOO       0.139000
     43 H14         15.6380    -2.1780     6.6850 ha         1 LOO       0.139000
     44 H15         16.5900    -0.4070     8.9100 h1         1 LOO       0.086700
     45 H16         15.6980    -1.9660     8.9690 h1         1 LOO       0.086700
     46 H17         18.3370    -2.9800    12.5320 h1         1 LOO       0.063700
     47 H18         19.5510    -3.7330    11.5010 h1         1 LOO       0.063700
     48 H19         21.6240    -2.5220    10.8800 ha         1 LOO       0.106500
     49 H20         20.8500     2.5500    11.6660 hc         1 LOO       0.027700
     50 H21         22.0160     3.5890    10.8370 hc         1 LOO       0.027700
     51 H22         22.1240     1.8390    10.6460 hc         1 LOO       0.027700
     52 O13         19.6850    -3.3230     8.9410 o          1 LOO      -0.527000
     53 C23         22.8520     2.5740    12.6040 c3         1 LOO       0.059000
     54 O26         16.5240    -1.3030    11.6240 o          1 LOO      -0.488000
     55 C28         17.8300    -2.6260     2.5480 c3         1 LOO       0.361300
@<TRIPOS>BOND
     1     1    16 ar  
     2     1    17 ar  
     3     1    30 1   
     4     2    17 ar  
     5     2    18 ar  
     6     2    27 1   
     7     3    18 1   
     8     3    31 1   
     9     3    32 1   
    10     3    33 1   
    11     4    17 1   
    12     4    34 1   
    13     4    35 1   
    14     4    36 1   
    15     5    37 1   
    16     5    38 1   
    17     5    39 1   
    18     5    53 1   
    19     6     7 ar  
    20     6    11 ar  
    21     6    40 1   
    22     7     8 ar  
    23     7    55 1   
    24     8     9 ar  
    25     8    41 1   
    26     9    10 ar  
    27     9    42 1   
    28    10    11 ar  
    29    10    25 1   
    30    11    43 1   
    31    12    13 1   
    32    12    25 1   
    33    12    44 1   
    34    12    45 1   
    35    13    26 1   
    36    13    54 2   
    37    14    25 1   
    38    14    26 1   
    39    14    52 2   
    40    15    16 1   
    41    15    26 1   
    42    15    46 1   
    43    15    47 1   
    44    16    19 ar  
    45    18    19 ar  
    46    19    48 1   
    47    20    49 1   
    48    20    50 1   
    49    20    51 1   
    50    20    53 1   
    51    21    28 1   
    52    21    29 1   
    53    21    53 1   
    54    22    55 1   
    55    23    55 1   
    56    24    55 1   
    57    27    53 1   
@<TRIPOS>SUBSTRUCTURE
     1 LOO         1 TEMP              0 ****  ****    0 ROOT
