@<TRIPOS>MOLECULE
LOO
   55    57     1     0     0
SMALL
abcg2


@<TRIPOS>ATOM
      1 C15         19.7120    -0.7230    12.9810 ca         1 LOO      -0.091500
      2 C17         21.8650     0.3270    12.8240 ca         1 LOO       0.182100
      3 C20         23.6770    -0.6510    11.3670 c3         1 LOO      -0.041800
      4 C21         20.1350     1.2990    14.3930 c3         1 LOO      -0.041800
      5 C24         24.2230     2.8670    12.2380 c3         1 LOO      -0.085100
      6 C1          16.7410    -1.8810     4.8480 ca         1 LOO      -0.030500
      7 C2          17.7540    -2.5050     4.1300 ca         1 LOO      -0.237300
      8 C3          18.8310    -3.0430     4.8230 ca         1 LOO      -0.030500
      9 C4          18.8840    -3.0050     6.2060 ca         1 LOO      -0.164000
     10 C5          17.8610    -2.3840     6.9320 ca         1 LOO       0.043000
     11 C6          16.7910    -1.8230     6.2270 ca         1 LOO      -0.164000
     12 C8          16.8020    -1.6060     9.0430 c5         1 LOO      -0.008000
     13 C9          17.2210    -1.7380    10.4820 c          1 LOO       0.566000
     14 C11         18.8000    -2.7760     9.1940 c          1 LOO       0.627000
     15 C12         19.1420    -2.7930    11.6750 c3         1 LOO       0.177300
     16 C14         20.1010    -1.7050    12.0790 ca         1 LOO      -0.168300
     17 C16         20.5790     0.2930    13.3750 ca         1 LOO      -0.105300
     18 C18         22.2870    -0.6660    11.9310 ca         1 LOO      -0.105300
     19 C19         21.3950    -1.6720    11.5740 ca         1 LOO      -0.091500
     20 C25         21.9000     2.6690    11.3640 c3         1 LOO      -0.085100
     21 C31         22.3650     3.6360    13.6970 c          1 LOO       0.717000
     22 F27         16.4430    -2.6030     2.1780 f          1 LOO      -0.117667
     23 F29         18.2320    -1.4170     2.1050 f          1 LOO      -0.117667
     24 F30         18.3660    -3.5620     2.1120 f          1 LOO      -0.117667
     25 N7          17.8590    -2.2870     8.3240 n          1 LOO      -0.232400
     26 N10         18.3810    -2.4540    10.4810 n          1 LOO      -0.374400
     27 O22         22.7620     1.2670    13.2100 os         1 LOO      -0.376100
     28 O32         22.8700     3.4740    14.8220 o          1 LOO      -0.714000
     29 O33         21.6140     4.5610    13.3330 o          1 LOO      -0.714000
     30 H1          18.7190    -0.7600    13.4140 ha         1 LOO       0.106500
     31 H2          23.8190     0.1710    10.6620 hc         1 LOO       0.046533
     32 H3          24.4320    -0.5350    12.1440 hc         1 LOO       0.046533
     33 H4          23.8860    -1.5760    10.8310 hc         1 LOO       0.046533
     34 H5          19.9410     2.2730    13.9430 hc         1 LOO       0.046533
     35 H6          19.2120     0.9750    14.8720 hc         1 LOO       0.046533
     36 H7          20.8850     1.4500    15.1670 hc         1 LOO       0.046533
     37 H8          24.8790     2.7220    13.0970 hc         1 LOO       0.027700
     38 H9          24.5620     2.2160    11.4300 hc         1 LOO       0.027700
     39 H10         24.3380     3.9000    11.9040 hc         1 LOO       0.027700
     40 H11         15.9060    -1.4130     4.3440 ha         1 LOO       0.127500
     41 H12         19.6420    -3.5320     4.2980 ha         1 LOO       0.127500
     42 H13         19.7250    -3.4550     6.7020 ha         1 LOO       0.139000
     43 H14         15.9800    -1.3290     6.7420 ha         1 LOO       0.139000
     44 H15         16.7260    -0.5540     8.7680 h1         1 LOO       0.086700
     45 H16         15.8280    -2.0780     8.8900 h1         1 LOO       0.086700
     46 H17         18.4230    -2.9880    12.4700 h1         1 LOO       0.063700
     47 H18         19.6640    -3.7280    11.4800 h1         1 LOO       0.063700
     48 H19         21.7200    -2.4430    10.8840 ha         1 LOO       0.106500
     49 H20         20.8400     2.5330    11.5750 hc         1 LOO       0.027700
     50 H21         22.0140     3.6510    10.9070 hc         1 LOO       0.027700
     51 H22         22.1970     1.9270    10.6200 hc         1 LOO       0.027700
     52 O13         19.7980    -3.4040     8.9410 o          1 LOO      -0.527000
     53 C23         22.7690     2.5930    12.6090 c3         1 LOO       0.059000
     54 O26         16.6410    -1.3070    11.4470 o          1 LOO      -0.488000
     55 C28         17.7000    -2.5290     2.6380 c3         1 LOO       0.361300
@<TRIPOS>BOND
     1     1    16 ar  
     2     1    17 ar  
     3     1    30 1   
     4     2    17 ar  
     5     2    18 ar  
     6     2    27 1   
     7     3    18 1   
     8     3    31 1   
     9     3    32 1   
    10     3    33 1   
    11     4    17 1   
    12     4    34 1   
    13     4    35 1   
    14     4    36 1   
    15     5    37 1   
    16     5    38 1   
    17     5    39 1   
    18     5    53 1   
    19     6     7 ar  
    20     6    11 ar  
    21     6    40 1   
    22     7     8 ar  
    23     7    55 1   
    24     8     9 ar  
    25     8    41 1   
    26     9    10 ar  
    27     9    42 1   
    28    10    11 ar  
    29    10    25 1   
    30    11    43 1   
    31    12    13 1   
    32    12    25 1   
    33    12    44 1   
    34    12    45 1   
    35    13    26 1   
    36    13    54 2   
    37    14    25 1   
    38    14    26 1   
    39    14    52 2   
    40    15    16 1   
    41    15    26 1   
    42    15    46 1   
    43    15    47 1   
    44    16    19 ar  
    45    18    19 ar  
    46    19    48 1   
    47    20    49 1   
    48    20    50 1   
    49    20    51 1   
    50    20    53 1   
    51    21    28 1   
    52    21    29 1   
    53    21    53 1   
    54    22    55 1   
    55    23    55 1   
    56    24    55 1   
    57    27    53 1   
@<TRIPOS>SUBSTRUCTURE
     1 LOO         1 TEMP              0 ****  ****    0 ROOT
