@<TRIPOS>MOLECULE
LOP
  112   111     1     0     0
SMALL
abcg2


@<TRIPOS>ATOM
      1 N1           5.7210     1.2430     2.3960 n8         1 LOP      -0.974200
      2 C1           4.3890     1.8190     2.4530 c3         1 LOP       0.137800
      3 C2           4.3910     3.2920     2.0970 c3         1 LOP       0.242600
      4 O1           4.8610     3.4540     0.7730 os         1 LOP      -0.581400
      5 P1           4.5500     4.8020    -0.0810 p5         1 LOP       1.393800
      6 O2           2.9400     4.5590    -0.3460 os         1 LOP      -0.595400
      7 O3           5.3090     4.6810    -1.3660 o          1 LOP      -0.821500
      8 O4           4.7010     6.0170     0.7860 o          1 LOP      -0.821500
      9 C3           2.3210     5.1630    -1.4540 c3         1 LOP       0.226600
     10 C4           1.8070     4.1500    -2.4640 c3         1 LOP       0.152300
     11 C5           2.8580     3.2490    -3.0730 c3         1 LOP       0.173600
     12 O5           0.8050     3.3010    -1.8890 os         1 LOP      -0.421100
     13 O6           3.3090     2.3090    -2.1060 os         1 LOP      -0.411100
     14 C6          -0.4570     3.7200    -1.8520 c          1 LOP       0.598100
     15 O7          -0.8190     4.7890    -2.2760 o          1 LOP      -0.514000
     16 C7          -1.3560     2.6890    -1.2260 c3         1 LOP      -0.141400
     17 C8          -2.7740     3.1810    -0.9830 c3         1 LOP      -0.067400
     18 C9          -3.6460     2.1100    -0.3410 c3         1 LOP      -0.076400
     19 C10         -5.0670     2.5900    -0.0730 c3         1 LOP      -0.074400
     20 C11         -5.9480     1.5300     0.5770 c3         1 LOP      -0.075400
     21 C12         -7.3740     2.0080     0.8200 c3         1 LOP      -0.072400
     22 C13         -8.2530     0.9510     1.4910 c3         1 LOP      -0.045200
     23 C14         -9.6440     1.4480     1.7320 c2         1 LOP      -0.209200
     24 C15        -10.7780     0.9750     1.2140 c2         1 LOP      -0.223200
     25 C16        -10.9440    -0.2020     0.3050 c3         1 LOP      -0.042200
     26 C17        -11.7160    -1.3390     0.9780 c3         1 LOP      -0.072400
     27 C18        -11.9320    -2.5370     0.0620 c3         1 LOP      -0.075400
     28 C19        -12.7080    -3.6640     0.7320 c3         1 LOP      -0.074400
     29 C20        -12.9100    -4.8770    -0.1680 c3         1 LOP      -0.075400
     30 C21        -13.6890    -5.9990     0.5050 c3         1 LOP      -0.075400
     31 C22        -13.8840    -7.2200    -0.3850 c3         1 LOP      -0.075400
     32 C23        -14.6620    -8.3330     0.3030 c3         1 LOP      -0.088100
     33 C24          4.4110     1.6270    -2.3810 c          1 LOP       0.616100
     34 O8           5.0080     1.7310    -3.4270 o          1 LOP      -0.516000
     35 C25          4.8130     0.7230    -1.2490 c3         1 LOP      -0.149400
     36 C26          5.7610    -0.3880    -1.6710 c3         1 LOP      -0.060400
     37 C27          6.2570    -1.2080    -0.4870 c3         1 LOP      -0.078400
     38 C28          7.2210    -2.3080    -0.9100 c3         1 LOP      -0.074400
     39 C29          7.8260    -3.0810     0.2550 c3         1 LOP      -0.074400
     40 C30          8.8100    -4.1520    -0.2020 c3         1 LOP      -0.075400
     41 C31          9.4760    -4.9040     0.9430 c3         1 LOP      -0.073400
     42 C32         10.4750    -5.9500     0.4610 c3         1 LOP      -0.075400
     43 C33         11.1710    -6.6950     1.5920 c3         1 LOP      -0.075400
     44 C34         12.1760    -7.7290     1.0980 c3         1 LOP      -0.075400
     45 C35         12.8780    -8.4650     2.2300 c3         1 LOP      -0.088100
     46 HN11         6.2670     1.5710     3.1840 hn         1 LOP       0.375000
     47 HN12         5.6610     0.2390     2.5000 hn         1 LOP       0.375000
     48 H11          3.9070     1.7250     3.4370 h1         1 LOP       0.016200
     49 H12          3.7500     1.2890     1.7430 h1         1 LOP       0.016200
     50 H21          5.0270     3.8460     2.7980 h1         1 LOP       0.017700
     51 H22          3.3720     3.6730     2.2190 h1         1 LOP       0.017700
     52 H31          2.9910     5.8380    -1.9970 h1         1 LOP       0.033200
     53 H32          1.4820     5.7730    -1.1060 h1         1 LOP       0.033200
     54 H4           1.3800     4.7250    -3.2920 h1         1 LOP       0.049700
     55 H51          3.6800     3.8670    -3.4360 h1         1 LOP       0.057200
     56 H52          2.4330     2.7160    -3.9290 h1         1 LOP       0.057200
     57 H71         -1.3630     1.8100    -1.8800 hc         1 LOP       0.069700
     58 H72         -0.8980     2.3530    -0.2910 hc         1 LOP       0.069700
     59 H81         -2.7510     4.0640    -0.3370 hc         1 LOP       0.051200
     60 H82         -3.2250     3.4990    -1.9260 hc         1 LOP       0.051200
     61 H91         -3.6770     1.2270    -0.9880 hc         1 LOP       0.036200
     62 H92         -3.1890     1.7820     0.6000 hc         1 LOP       0.036200
     63 H101        -5.0350     3.4770     0.5690 hc         1 LOP       0.039200
     64 H102        -5.5250     2.9130    -1.0150 hc         1 LOP       0.039200
     65 H111        -5.9700     0.6360    -0.0570 hc         1 LOP       0.036200
     66 H112        -5.5000     1.2180     1.5270 hc         1 LOP       0.036200
     67 H121        -7.3560     2.9110     1.4400 hc         1 LOP       0.039200
     68 H122        -7.8300     2.3010    -0.1320 hc         1 LOP       0.039200
     69 H131        -8.2580     0.0430     0.8830 hc         1 LOP       0.044200
     70 H132        -7.7980     0.6750     2.4490 hc         1 LOP       0.044200
     71 H14         -9.7160     2.3080     2.3930 ha         1 LOP       0.164000
     72 H15        -11.7040     1.4720     1.4960 ha         1 LOP       0.162000
     73 H161       -11.4900     0.1080    -0.5930 hc         1 LOP       0.044200
     74 H162        -9.9770    -0.5750    -0.0400 hc         1 LOP       0.044200
     75 H171       -11.1750    -1.6560     1.8750 hc         1 LOP       0.038200
     76 H172       -12.6860    -0.9640     1.3230 hc         1 LOP       0.038200
     77 H181       -12.4640    -2.2170    -0.8410 hc         1 LOP       0.037700
     78 H182       -10.9610    -2.9140    -0.2760 hc         1 LOP       0.037700
     79 H191       -12.1830    -3.9730     1.6430 hc         1 LOP       0.036700
     80 H192       -13.6840    -3.2880     1.0580 hc         1 LOP       0.036700
     81 H201       -13.4320    -4.5700    -1.0820 hc         1 LOP       0.037200
     82 H202       -11.9340    -5.2550    -0.4910 hc         1 LOP       0.037200
     83 H211       -13.1710    -6.2990     1.4230 hc         1 LOP       0.036200
     84 H212       -14.6680    -5.6220     0.8220 hc         1 LOP       0.036200
     85 H221       -14.4030    -6.9210    -1.3010 hc         1 LOP       0.036700
     86 H222       -12.9060    -7.5970    -0.7010 hc         1 LOP       0.036700
     87 H231       -14.1550    -8.6600     1.2130 hc         1 LOP       0.030700
     88 H232       -15.6610    -7.9970     0.5880 hc         1 LOP       0.030700
     89 H233       -14.7780    -9.2040    -0.3430 hc         1 LOP       0.030700
     90 H251         3.9150     0.3150    -0.7780 hc         1 LOP       0.091700
     91 H252         5.2790     1.3500    -0.4820 hc         1 LOP       0.091700
     92 H261         6.6220     0.0410    -2.1900 hc         1 LOP       0.042700
     93 H262         5.2660    -1.0470    -2.3910 hc         1 LOP       0.042700
     94 H271         5.4060    -1.6450     0.0470 hc         1 LOP       0.042700
     95 H272         6.7480    -0.5400     0.2290 hc         1 LOP       0.042700
     96 H281         8.0310    -1.8630    -1.5000 hc         1 LOP       0.034700
     97 H282         6.7070    -3.0050    -1.5810 hc         1 LOP       0.034700
     98 H291         7.0290    -3.5430     0.8470 hc         1 LOP       0.036200
     99 H292         8.3370    -2.3810     0.9250 hc         1 LOP       0.036200
    100 H301         9.5830    -3.6840    -0.8210 hc         1 LOP       0.035200
    101 H302         8.2930    -4.8650    -0.8530 hc         1 LOP       0.035200
    102 H311         8.7110    -5.3880     1.5600 hc         1 LOP       0.036200
    103 H312         9.9870    -4.1890     1.5970 hc         1 LOP       0.036200
    104 H321        11.2280    -5.4640    -0.1690 hc         1 LOP       0.035700
    105 H322         9.9610    -6.6710    -0.1850 hc         1 LOP       0.035700
    106 H331        10.4220    -7.1890     2.2210 hc         1 LOP       0.036700
    107 H332        11.6820    -5.9750     2.2400 hc         1 LOP       0.036700
    108 H341        12.9190    -7.2340     0.4660 hc         1 LOP       0.035700
    109 H342        11.6630    -8.4510     0.4540 hc         1 LOP       0.035700
    110 H351        13.4230    -7.7710     2.8730 hc         1 LOP       0.029033
    111 H352        12.1620    -8.9990     2.8580 hc         1 LOP       0.029033
    112 H353        13.5940    -9.1950     1.8500 hc         1 LOP       0.029033
@<TRIPOS>BOND
     1     1     2 1   
     2     1    46 1   
     3     1    47 1   
     4     2     3 1   
     5     2    48 1   
     6     2    49 1   
     7     3     4 1   
     8     3    50 1   
     9     3    51 1   
    10     4     5 1   
    11     5     6 1   
    12     5     7 1   
    13     5     8 1   
    14     6     9 1   
    15     9    10 1   
    16     9    52 1   
    17     9    53 1   
    18    10    11 1   
    19    10    12 1   
    20    10    54 1   
    21    11    13 1   
    22    11    55 1   
    23    11    56 1   
    24    12    14 1   
    25    13    33 1   
    26    14    15 2   
    27    14    16 1   
    28    16    17 1   
    29    16    57 1   
    30    16    58 1   
    31    17    18 1   
    32    17    59 1   
    33    17    60 1   
    34    18    19 1   
    35    18    61 1   
    36    18    62 1   
    37    19    20 1   
    38    19    63 1   
    39    19    64 1   
    40    20    21 1   
    41    20    65 1   
    42    20    66 1   
    43    21    22 1   
    44    21    67 1   
    45    21    68 1   
    46    22    23 1   
    47    22    69 1   
    48    22    70 1   
    49    23    24 2   
    50    23    71 1   
    51    24    25 1   
    52    24    72 1   
    53    25    26 1   
    54    25    73 1   
    55    25    74 1   
    56    26    27 1   
    57    26    75 1   
    58    26    76 1   
    59    27    28 1   
    60    27    77 1   
    61    27    78 1   
    62    28    29 1   
    63    28    79 1   
    64    28    80 1   
    65    29    30 1   
    66    29    81 1   
    67    29    82 1   
    68    30    31 1   
    69    30    83 1   
    70    30    84 1   
    71    31    32 1   
    72    31    85 1   
    73    31    86 1   
    74    32    87 1   
    75    32    88 1   
    76    32    89 1   
    77    33    34 2   
    78    33    35 1   
    79    35    36 1   
    80    35    90 1   
    81    35    91 1   
    82    36    37 1   
    83    36    92 1   
    84    36    93 1   
    85    37    38 1   
    86    37    94 1   
    87    37    95 1   
    88    38    39 1   
    89    38    96 1   
    90    38    97 1   
    91    39    40 1   
    92    39    98 1   
    93    39    99 1   
    94    40    41 1   
    95    40   100 1   
    96    40   101 1   
    97    41    42 1   
    98    41   102 1   
    99    41   103 1   
   100    42    43 1   
   101    42   104 1   
   102    42   105 1   
   103    43    44 1   
   104    43   106 1   
   105    43   107 1   
   106    44    45 1   
   107    44   108 1   
   108    44   109 1   
   109    45   110 1   
   110    45   111 1   
   111    45   112 1   
@<TRIPOS>SUBSTRUCTURE
     1 LOP         1 TEMP              0 ****  ****    0 ROOT
