@<TRIPOS>MOLECULE
LOP
  112   111     1     0     0
SMALL
No Charge or Current Charge


@<TRIPOS>ATOM
      1 N1           2.1680     1.6400     2.0240 n8         1 LOP      -0.974200
      2 C1           2.6030     1.0440     0.7380 c3         1 LOP       0.137800
      3 C2           2.1910     1.8480    -0.5380 c3         1 LOP       0.242600
      4 O1           3.0900     2.9430    -0.7610 os         1 LOP      -0.581400
      5 P1           2.8590     4.4120    -0.1440 p5         1 LOP       1.393800
      6 O2           1.6700     4.9410    -1.1010 os         1 LOP      -0.595400
      7 O3           4.0780     5.2620    -0.2740 o          1 LOP      -0.821500
      8 O4           2.4070     4.3530     1.2770 o          1 LOP      -0.821500
      9 C3           1.9010     5.6240    -2.3570 c3         1 LOP       0.226600
     10 C4           1.8310     4.6820    -3.6100 c3         1 LOP       0.152300
     11 C5           3.1890     4.3080    -4.2640 c3         1 LOP       0.173600
     12 O5           1.0750     3.4780    -3.3250 os         1 LOP      -0.421100
     13 O6           4.0640     3.7160    -3.2950 os         1 LOP      -0.411100
     14 C6          -0.2820     3.5820    -3.1510 c          1 LOP       0.598100
     15 O7          -0.9400     4.5740    -3.4390 o          1 LOP      -0.514000
     16 C7          -0.9150     2.2240    -2.8330 c3         1 LOP      -0.141400
     17 C8          -1.6530     2.2440    -1.4720 c3         1 LOP      -0.067400
     18 C9          -2.1270     0.8450    -1.0220 c3         1 LOP      -0.076400
     19 C10         -2.8480     0.8640     0.3430 c3         1 LOP      -0.074400
     20 C11         -3.3340    -0.5340     0.7860 c3         1 LOP      -0.075400
     21 C12         -4.0540    -0.5190     2.1520 c3         1 LOP      -0.072400
     22 C13         -4.5700    -1.9080     2.5790 c3         1 LOP      -0.045200
     23 C14         -5.2960    -1.8650     3.9110 c2         1 LOP      -0.209200
     24 C15         -6.6200    -1.7240     4.0990 c2         1 LOP      -0.223200
     25 C16         -7.6740    -1.5340     3.0240 c3         1 LOP      -0.042200
     26 C17         -8.3430    -2.8640     2.6200 c3         1 LOP      -0.072400
     27 C18         -9.4120    -2.6930     1.5180 c3         1 LOP      -0.075400
     28 C19        -10.0710    -4.0270     1.1020 c3         1 LOP      -0.074400
     29 C20        -11.1420    -3.8530     0.0020 c3         1 LOP      -0.075400
     30 C21        -11.7990    -5.1870    -0.4170 c3         1 LOP      -0.075400
     31 C22        -12.8760    -5.0120    -1.5110 c3         1 LOP      -0.075400
     32 C23        -13.5320    -6.3420    -1.9290 c3         1 LOP      -0.088100
     33 C24          5.2780     3.2450    -3.7090 c          1 LOP       0.616100
     34 O8           5.6640     3.2470    -4.8710 o          1 LOP      -0.516000
     35 C25          6.0440     2.5880    -2.5620 c3         1 LOP      -0.149400
     36 C26          5.6550     1.0980    -2.4100 c3         1 LOP      -0.060400
     37 C27          6.2690     0.4360    -1.1570 c3         1 LOP      -0.078400
     38 C28          5.8410    -1.0380    -0.9850 c3         1 LOP      -0.074400
     39 C29          6.4470    -1.7010     0.2710 c3         1 LOP      -0.074400
     40 C30          6.0330    -3.1800     0.4310 c3         1 LOP      -0.075400
     41 C31          6.6460    -3.8510     1.6800 c3         1 LOP      -0.073400
     42 C32          6.2440    -5.3360     1.8280 c3         1 LOP      -0.075400
     43 C33          6.8650    -6.0120     3.0700 c3         1 LOP      -0.075400
     44 C34          6.4750    -7.5000     3.2070 c3         1 LOP      -0.075400
     45 C35          7.1010    -8.1770     4.4420 c3         1 LOP      -0.088100
     46 HN11         2.3610     2.6560     1.9620 hn         1 LOP       0.375000
     47 HN12         1.1450     1.6110     2.0730 hn         1 LOP       0.375000
     48 H11          2.1760     0.0340     0.6790 h1         1 LOP       0.016200
     49 H12          3.6960     0.9430     0.7570 h1         1 LOP       0.016200
     50 H21          1.1570     2.1970    -0.4410 h1         1 LOP       0.017700
     51 H22          2.2290     1.1710    -1.4010 h1         1 LOP       0.017700
     52 H31          2.8660     6.1480    -2.3560 h1         1 LOP       0.033200
     53 H32          1.1350     6.4000    -2.4820 h1         1 LOP       0.033200
     54 H4           1.3080     5.2510    -4.3910 h1         1 LOP       0.049700
     55 H51          3.6440     5.2150    -4.6830 h1         1 LOP       0.057200
     56 H52          3.0000     3.6140    -5.0930 h1         1 LOP       0.057200
     57 H71         -1.6370     1.9790    -3.6200 hc         1 LOP       0.069700
     58 H72         -0.1320     1.4580    -2.8020 hc         1 LOP       0.069700
     59 H81         -0.9940     2.6650    -0.7040 hc         1 LOP       0.051200
     60 H82         -2.5180     2.9160    -1.5430 hc         1 LOP       0.051200
     61 H91         -2.8020     0.4320    -1.7830 hc         1 LOP       0.036200
     62 H92         -1.2620     0.1730    -0.9620 hc         1 LOP       0.036200
     63 H101        -2.1700     1.2680     1.1040 hc         1 LOP       0.039200
     64 H102        -3.7090     1.5420     0.2870 hc         1 LOP       0.039200
     65 H111        -4.0140    -0.9350     0.0250 hc         1 LOP       0.036200
     66 H112        -2.4750    -1.2150     0.8400 hc         1 LOP       0.036200
     67 H121        -3.3680    -0.1380     2.9200 hc         1 LOP       0.039200
     68 H122        -4.9000     0.1780     2.1060 hc         1 LOP       0.039200
     69 H131        -5.2300    -2.2990     1.7950 hc         1 LOP       0.044200
     70 H132        -3.7270    -2.6070     2.6400 hc         1 LOP       0.044200
     71 H14         -4.6380    -1.9830     4.7750 ha         1 LOP       0.164000
     72 H15         -7.0220    -1.7210     5.1140 ha         1 LOP       0.162000
     73 H161        -8.4400    -0.8340     3.3790 hc         1 LOP       0.044200
     74 H162        -7.2340    -1.0720     2.1310 hc         1 LOP       0.044200
     75 H171        -7.5710    -3.5600     2.2700 hc         1 LOP       0.038200
     76 H172        -8.8050    -3.3160     3.5060 hc         1 LOP       0.038200
     77 H181       -10.1870    -2.0030     1.8720 hc         1 LOP       0.037700
     78 H182        -8.9490    -2.2310     0.6370 hc         1 LOP       0.037700
     79 H191        -9.2950    -4.7160     0.7440 hc         1 LOP       0.036700
     80 H192       -10.5310    -4.4910     1.9830 hc         1 LOP       0.036700
     81 H201       -11.9180    -3.1670     0.3620 hc         1 LOP       0.037200
     82 H202       -10.6830    -3.3860    -0.8780 hc         1 LOP       0.037200
     83 H211       -11.0230    -5.8720    -0.7810 hc         1 LOP       0.036200
     84 H212       -12.2540    -5.6570     0.4640 hc         1 LOP       0.036200
     85 H221       -13.6550    -4.3290    -1.1490 hc         1 LOP       0.036700
     86 H222       -12.4240    -4.5440    -2.3940 hc         1 LOP       0.036700
     87 H231       -12.7830    -7.0350    -2.3310 hc         1 LOP       0.030700
     88 H232       -14.0220    -6.8200    -1.0720 hc         1 LOP       0.030700
     89 H233       -14.2890    -6.1680    -2.7040 hc         1 LOP       0.030700
     90 H251         5.7700     3.0940    -1.6290 hc         1 LOP       0.091700
     91 H252         7.1210     2.6680    -2.7470 hc         1 LOP       0.091700
     92 H261         5.9700     0.5490    -3.3060 hc         1 LOP       0.042700
     93 H262         4.5620     1.0160    -2.3560 hc         1 LOP       0.042700
     94 H271         5.9690     1.0030    -0.2670 hc         1 LOP       0.042700
     95 H272         7.3630     0.4920    -1.2190 hc         1 LOP       0.042700
     96 H281         6.1440    -1.6050    -1.8740 hc         1 LOP       0.034700
     97 H282         4.7470    -1.0910    -0.9280 hc         1 LOP       0.034700
     98 H291         6.1340    -1.1400     1.1610 hc         1 LOP       0.036200
     99 H292         7.5410    -1.6370     0.2200 hc         1 LOP       0.036200
    100 H301         6.3390    -3.7380    -0.4630 hc         1 LOP       0.035200
    101 H302         4.9390    -3.2440     0.4890 hc         1 LOP       0.035200
    102 H311         6.3320    -3.3010     2.5760 hc         1 LOP       0.036200
    103 H312         7.7400    -3.7780     1.6270 hc         1 LOP       0.036200
    104 H321         6.5540    -5.8830     0.9280 hc         1 LOP       0.035700
    105 H322         5.1500    -5.4090     1.8870 hc         1 LOP       0.035700
    106 H331         6.5480    -5.4710     3.9710 hc         1 LOP       0.036700
    107 H332         7.9590    -5.9300     3.0150 hc         1 LOP       0.036700
    108 H341         6.7880    -8.0430     2.3070 hc         1 LOP       0.035700
    109 H342         5.3820    -7.5860     3.2690 hc         1 LOP       0.035700
    110 H351         8.1960    -8.1360     4.3940 hc         1 LOP       0.029033
    111 H352         6.7750    -7.6800     5.3640 hc         1 LOP       0.029033
    112 H353         6.7980    -9.2300     4.4950 hc         1 LOP       0.029033
@<TRIPOS>BOND
     1     1     2 1   
     2     1    46 1   
     3     1    47 1   
     4     2     3 1   
     5     2    48 1   
     6     2    49 1   
     7     3     4 1   
     8     3    50 1   
     9     3    51 1   
    10     4     5 1   
    11     5     6 1   
    12     5     7 1   
    13     5     8 1   
    14     6     9 1   
    15     9    10 1   
    16     9    52 1   
    17     9    53 1   
    18    10    11 1   
    19    10    12 1   
    20    10    54 1   
    21    11    13 1   
    22    11    55 1   
    23    11    56 1   
    24    12    14 1   
    25    13    33 1   
    26    14    15 2   
    27    14    16 1   
    28    16    17 1   
    29    16    57 1   
    30    16    58 1   
    31    17    18 1   
    32    17    59 1   
    33    17    60 1   
    34    18    19 1   
    35    18    61 1   
    36    18    62 1   
    37    19    20 1   
    38    19    63 1   
    39    19    64 1   
    40    20    21 1   
    41    20    65 1   
    42    20    66 1   
    43    21    22 1   
    44    21    67 1   
    45    21    68 1   
    46    22    23 1   
    47    22    69 1   
    48    22    70 1   
    49    23    24 2   
    50    23    71 1   
    51    24    25 1   
    52    24    72 1   
    53    25    26 1   
    54    25    73 1   
    55    25    74 1   
    56    26    27 1   
    57    26    75 1   
    58    26    76 1   
    59    27    28 1   
    60    27    77 1   
    61    27    78 1   
    62    28    29 1   
    63    28    79 1   
    64    28    80 1   
    65    29    30 1   
    66    29    81 1   
    67    29    82 1   
    68    30    31 1   
    69    30    83 1   
    70    30    84 1   
    71    31    32 1   
    72    31    85 1   
    73    31    86 1   
    74    32    87 1   
    75    32    88 1   
    76    32    89 1   
    77    33    34 2   
    78    33    35 1   
    79    35    36 1   
    80    35    90 1   
    81    35    91 1   
    82    36    37 1   
    83    36    92 1   
    84    36    93 1   
    85    37    38 1   
    86    37    94 1   
    87    37    95 1   
    88    38    39 1   
    89    38    96 1   
    90    38    97 1   
    91    39    40 1   
    92    39    98 1   
    93    39    99 1   
    94    40    41 1   
    95    40   100 1   
    96    40   101 1   
    97    41    42 1   
    98    41   102 1   
    99    41   103 1   
   100    42    43 1   
   101    42   104 1   
   102    42   105 1   
   103    43    44 1   
   104    43   106 1   
   105    43   107 1   
   106    44    45 1   
   107    44   108 1   
   108    44   109 1   
   109    45   110 1   
   110    45   111 1   
   111    45   112 1   
@<TRIPOS>SUBSTRUCTURE
     1 LOP         1 TEMP              0 ****  ****    0 ROOT
