@<TRIPOS>MOLECULE
LOQ
   25    26     1     0     0
SMALL
bcc


@<TRIPOS>ATOM
      1 C4           0.2980     0.0110     0.0150 ca         1 LOQ       0.039600
      2 C5           0.9920     0.5790    -1.0420 ca         1 LOQ      -0.106000
      3 C6           2.3780     0.5650    -1.0390 ca         1 LOQ      -0.124000
      4 C7          -1.8860    -1.0690    -0.3630 c          1 LOQ       0.713500
      5 C8          -3.3360    -0.6940    -0.2080 c5         1 LOQ      -0.168400
      6 C10         -1.8720     1.1200     0.3930 c          1 LOQ       0.713500
      7 N           -1.1210     0.0200     0.0150 n          1 LOQ      -0.449600
      8 O           -1.4270    -2.1170    -0.7390 o          1 LOQ      -0.563000
      9 C1           3.0910    -0.0130     0.0100 ca         1 LOQ      -0.065300
     10 C2           2.3720    -0.5820     1.0600 ca         1 LOQ      -0.124000
     11 C3           0.9860    -0.5700     1.0690 ca         1 LOQ      -0.106000
     12 C9          -3.3270     0.7640     0.2340 c5         1 LOQ      -0.168400
     13 O1          -1.4000     2.1610     0.7690 o          1 LOQ      -0.563000
     14 H1           0.4530     1.0230    -1.8690 ha         1 LOQ       0.138000
     15 H2           2.9120     1.0090    -1.8700 ha         1 LOQ       0.133000
     16 H3          -3.8580    -0.8570    -1.1510 hc         1 LOQ       0.086200
     17 H4           4.9680     0.9090     0.4900 hc         1 LOQ       0.044033
     18 H5           4.9950    -0.8460     0.5740 hc         1 LOQ       0.044033
     19 H6           4.9960    -0.0330    -0.9920 hc         1 LOQ       0.044033
     20 H7           2.9010    -1.0420     1.8860 ha         1 LOQ       0.133000
     21 H8           0.4420    -1.0110     1.8950 ha         1 LOQ       0.138000
     22 H9          -3.7720     1.4310    -0.5050 hc         1 LOQ       0.086200
     23 H10         -3.7920    -1.3550     0.5300 hc         1 LOQ       0.086200
     24 H11         -3.8490     0.9340     1.1760 hc         1 LOQ       0.086200
     25 C            4.5910    -0.0010     0.0190 c3         1 LOQ      -0.048800
@<TRIPOS>BOND
     1     1     2 ar  
     2     1     7 1   
     3     1    11 ar  
     4     2     3 ar  
     5     2    14 1   
     6     3     9 ar  
     7     3    15 1   
     8     4     5 1   
     9     4     7 1   
    10     4     8 2   
    11     5    12 1   
    12     5    16 1   
    13     5    23 1   
    14     6     7 1   
    15     6    12 1   
    16     6    13 2   
    17     9    10 ar  
    18     9    25 1   
    19    10    11 ar  
    20    10    20 1   
    21    11    21 1   
    22    12    22 1   
    23    12    24 1   
    24    17    25 1   
    25    18    25 1   
    26    19    25 1   
@<TRIPOS>SUBSTRUCTURE
     1 LOQ         1 TEMP              0 ****  ****    0 ROOT
