@<TRIPOS>MOLECULE
LOQ
   25    26     1     0     0
SMALL
No Charge or Current Charge


@<TRIPOS>ATOM
      1 C4           0.2760     0.0130     0.0130 ca         1 LOQ      -0.053000
      2 C5           1.0000     0.9640    -0.7370 ca         1 LOQ      -0.088000
      3 C6           2.4050     0.9550    -0.7360 ca         1 LOQ      -0.106000
      4 C7          -1.9350    -1.1530     0.0320 c          1 LOQ       0.571000
      5 C8          -3.3630    -0.6750     0.3320 c5         1 LOQ      -0.168400
      6 C10         -1.9220     1.2020    -0.0060 c          1 LOQ       0.571000
      7 N           -1.1700     0.0200     0.0130 n          1 LOQ      -0.223000
      8 O           -1.5540    -2.2580    -0.3300 o          1 LOQ      -0.487500
      9 C1           3.1110    -0.0030     0.0130 ca         1 LOQ      -0.065300
     10 C2           2.3950    -0.9510     0.7650 ca         1 LOQ      -0.106000
     11 C3           0.9890    -0.9450     0.7650 ca         1 LOQ      -0.088000
     12 C9          -3.3560     0.7390    -0.3070 c5         1 LOQ      -0.168400
     13 O1          -1.5310     2.3030     0.3560 o          1 LOQ      -0.487500
     14 H1           0.4790     1.7090    -1.3340 ha         1 LOQ       0.120000
     15 H2           2.9460     1.6960    -1.3210 ha         1 LOQ       0.115000
     16 H3          -4.1190    -1.3740    -0.0430 hc         1 LOQ       0.086200
     17 H4           5.0230     0.6250     0.8210 hc         1 LOQ       0.044033
     18 H5           5.0280    -1.0210     0.1630 hc         1 LOQ       0.044033
     19 H6           5.0350     0.3670    -0.9320 hc         1 LOQ       0.044033
     20 H7           2.9280    -1.6950     1.3540 ha         1 LOQ       0.115000
     21 H8           0.4600    -1.6830     1.3630 ha         1 LOQ       0.120000
     22 H9          -3.4550     0.6290    -1.3930 hc         1 LOQ       0.086200
     23 H10         -3.4620    -0.5640     1.4190 hc         1 LOQ       0.086200
     24 H11         -4.1040     1.4450     0.0680 hc         1 LOQ       0.086200
     25 C            4.6320    -0.0090     0.0160 c3         1 LOQ      -0.048800
@<TRIPOS>BOND
     1     1     2 ar  
     2     1     7 1   
     3     1    11 ar  
     4     2     3 ar  
     5     2    14 1   
     6     3     9 ar  
     7     3    15 1   
     8     4     5 1   
     9     4     7 1   
    10     4     8 2   
    11     5    12 1   
    12     5    16 1   
    13     5    23 1   
    14     6     7 1   
    15     6    12 1   
    16     6    13 2   
    17     9    10 ar  
    18     9    25 1   
    19    10    11 ar  
    20    10    20 1   
    21    11    21 1   
    22    12    22 1   
    23    12    24 1   
    24    17    25 1   
    25    18    25 1   
    26    19    25 1   
@<TRIPOS>SUBSTRUCTURE
     1 LOQ         1 TEMP              0 ****  ****    0 ROOT
