@<TRIPOS>MOLECULE
LOT
   26    27     1     0     0
SMALL
abcg2


@<TRIPOS>ATOM
      1 C1           0.9710     0.8990     0.4690 ca         1 LOT       0.466900
      2 C2          -0.9840    -0.1200    -0.0610 ca         1 LOT       0.521900
      3 C3          -3.1900    -1.0030     0.5910 c          1 LOT       0.580000
      4 C4          -4.6240    -0.5740     0.4390 c5         1 LOT      -0.165400
      5 C5          -4.5750     0.7410    -0.3280 c5         1 LOT      -0.165400
      6 C6          -3.1180     0.9870    -0.6120 c          1 LOT       0.580000
      7 C7          -0.3500    -1.2280    -0.6010 ca         1 LOT      -0.167000
      8 N1          -0.3500     0.9140     0.4630 nb         1 LOT      -0.683000
      9 N2          -2.3930    -0.0540    -0.0390 n          1 LOT      -0.409900
     10 C8           1.0340    -1.2560    -0.5770 ca         1 LOT       0.030000
     11 N            3.8270     0.8350    -1.2370 n8         1 LOT      -1.011100
     12 C            1.7000    -0.1700    -0.0360 ca         1 LOT      -0.335500
     13 O            3.9320    -1.5020    -0.1280 o          1 LOT      -0.541500
     14 O1           3.8650     0.6010     1.2340 o          1 LOT      -0.541500
     15 O3          -2.6250     1.8930    -1.2280 o          1 LOT      -0.476000
     16 S            3.4680    -0.1350     0.0450 sy         1 LOT       1.144600
     17 H1           1.4640     1.7620     0.9000 h4         1 LOT       0.048100
     18 H2          -5.1720    -1.3540    -0.0910 hc         1 LOT       0.089700
     19 H3          -5.1240     0.7100    -1.2680 hc         1 LOT       0.089700
     20 H4          -0.9110    -2.0420    -1.0360 ha         1 LOT       0.142000
     21 H5           1.5670    -2.1060    -0.9790 ha         1 LOT       0.144000
     22 H6           3.7780     0.3530    -2.1280 hn         1 LOT       0.477500
     23 H7           4.7290     1.2890    -1.1250 hn         1 LOT       0.477500
     24 H8          -5.0740    -0.4780     1.4270 hc         1 LOT       0.089700
     25 H9          -4.9680     1.5810     0.2450 hc         1 LOT       0.089700
     26 O2          -2.7610    -1.9760     1.1510 o          1 LOT      -0.476000
@<TRIPOS>BOND
     1     1     8 ar  
     2     1    12 ar  
     3     1    17 1   
     4     2     7 ar  
     5     2     8 ar  
     6     2     9 1   
     7     3     4 1   
     8     3     9 1   
     9     3    26 2   
    10     4     5 1   
    11     4    18 1   
    12     4    24 1   
    13     5     6 1   
    14     5    19 1   
    15     5    25 1   
    16     6     9 1   
    17     6    15 2   
    18     7    10 ar  
    19     7    20 1   
    20    10    12 ar  
    21    10    21 1   
    22    11    16 1   
    23    11    22 1   
    24    11    23 1   
    25    12    16 1   
    26    13    16 2   
    27    14    16 2   
@<TRIPOS>SUBSTRUCTURE
     1 LOT         1 TEMP              0 ****  ****    0 ROOT
