@<TRIPOS>MOLECULE
LOT
   26    27     1     0     0
SMALL
No Charge or Current Charge


@<TRIPOS>ATOM
      1 C1           0.9510     0.9620     0.4080 ca         1 LOT       0.466900
      2 C2          -1.0510    -0.0920    -0.0790 ca         1 LOT       0.521900
      3 C3          -3.2110    -1.0100     0.5880 c          1 LOT       0.580000
      4 C4          -4.6560    -0.6890     0.1820 c5         1 LOT      -0.165400
      5 C5          -4.5860     0.8490    -0.0340 c5         1 LOT      -0.165400
      6 C6          -3.1690     1.0150    -0.6010 c          1 LOT       0.580000
      7 C7          -0.3900    -1.2390    -0.5490 ca         1 LOT      -0.167000
      8 N1          -0.4010     0.9860     0.4020 nb         1 LOT      -0.683000
      9 N2          -2.4580    -0.0290    -0.0330 n          1 LOT      -0.409900
     10 C8           1.0110    -1.2670    -0.5430 ca         1 LOT       0.030000
     11 N            3.8220     0.5920    -1.4360 n8         1 LOT      -1.011100
     12 C            1.6820    -0.1350    -0.0510 ca         1 LOT      -0.335500
     13 O            4.0310    -1.3890    -0.0490 o          1 LOT      -0.541500
     14 O1           3.8890     0.9550     0.9670 o          1 LOT      -0.541500
     15 O3          -2.7750     1.7220    -1.5170 o          1 LOT      -0.476000
     16 S            3.4460    -0.0530     0.0090 sy         1 LOT       1.144600
     17 H1           1.4430     1.8550     0.7940 h4         1 LOT       0.048100
     18 H2          -4.8470    -1.1690    -0.7850 hc         1 LOT       0.089700
     19 H3          -5.3470     1.2820    -0.6920 hc         1 LOT       0.089700
     20 H4          -0.9570    -2.0890    -0.9160 ha         1 LOT       0.142000
     21 H5           1.5510    -2.1410    -0.9070 ha         1 LOT       0.144000
     22 H6           4.4240    -0.1400    -1.8090 hn         1 LOT       0.477500
     23 H7           4.5000     1.2960    -1.1540 hn         1 LOT       0.477500
     24 H8          -5.3800    -1.0460     0.9230 hc         1 LOT       0.089700
     25 H9          -4.6150     1.3370     0.9470 hc         1 LOT       0.089700
     26 O2          -2.7930    -1.7950     1.4240 o          1 LOT      -0.476000
@<TRIPOS>BOND
     1     1     8 ar  
     2     1    12 ar  
     3     1    17 1   
     4     2     7 ar  
     5     2     8 ar  
     6     2     9 1   
     7     3     4 1   
     8     3     9 1   
     9     3    26 2   
    10     4     5 1   
    11     4    18 1   
    12     4    24 1   
    13     5     6 1   
    14     5    19 1   
    15     5    25 1   
    16     6     9 1   
    17     6    15 2   
    18     7    10 ar  
    19     7    20 1   
    20    10    12 ar  
    21    10    21 1   
    22    11    16 1   
    23    11    22 1   
    24    11    23 1   
    25    12    16 1   
    26    13    16 2   
    27    14    16 2   
@<TRIPOS>SUBSTRUCTURE
     1 LOT         1 TEMP              0 ****  ****    0 ROOT
