@<TRIPOS>MOLECULE
LOU
   36    38     1     0     0
SMALL
bcc


@<TRIPOS>ATOM
      1 C21         -4.0790     1.4070    -0.5950 c          1 LOU       0.927600
      2 C22         -3.3010     0.7340     0.5640 c3         1 LOU      -0.051000
      3 N23         -2.1020     0.0710     0.1240 n          1 LOU      -0.470400
      4 C24         -2.1120    -1.1690    -0.4710 c          1 LOU       0.726500
      5 O25         -3.1080    -1.8450    -0.6100 o          1 LOU      -0.624500
      6 C26         -0.8740     0.7010     0.0540 c          1 LOU       0.730500
      7 C27          0.1260    -0.2770    -0.4940 c5         1 LOU      -0.171700
      8 C28         -0.6930    -1.5130    -0.8770 c5         1 LOU      -0.185700
      9 O29         -0.6620     1.8170     0.4490 o          1 LOU      -0.579500
     10 O30         -3.5270     1.4380    -1.7080 o          1 LOU      -0.836800
     11 N52          3.3040    -0.3110    -1.4930 n8         1 LOU      -0.882800
     12 C53          3.1130     0.5970    -0.3610 c3         1 LOU       0.015500
     13 C54          2.4180    -0.1180     0.7940 c3         1 LOU      -0.038400
     14 C55          1.1340    -0.8780     0.5270 c5         1 LOU       0.168800
     15 O56          1.3450    -2.1650    -0.0600 os         1 LOU      -0.392600
     16 C57         -0.0020    -2.6170    -0.0550 c5         1 LOU       0.136100
     17 C58         -0.3830    -2.5080     1.4250 c5         1 LOU      -0.109400
     18 C59          0.4040    -1.2490     1.8330 c5         1 LOU      -0.112400
     19 C60          4.3870     1.3200     0.1860 c          1 LOU       0.904600
     20 O93          5.4640     1.1730    -0.4240 o          1 LOU      -0.845800
     21 H19         -3.0240     1.4820     1.3090 h1         1 LOU       0.042200
     22 H20         -3.9400     0.0100     1.0670 h1         1 LOU       0.042200
     23 H21          0.6560     0.1610    -1.3390 hc         1 LOU       0.124700
     24 H22         -0.6560    -1.7430    -1.9430 hc         1 LOU       0.089700
     25 H42          2.4420     1.4070    -0.6940 h1         1 LOU       0.057700
     26 H43          3.1130    -0.8190     1.2660 hc         1 LOU       0.054700
     27 H44          2.1950     0.6300     1.5540 hc         1 LOU       0.054700
     28 H45         -0.0820    -3.6130    -0.4900 h1         1 LOU       0.072700
     29 H46         -1.4510    -2.4380     1.6030 hc         1 LOU       0.043200
     30 H47         -0.0290    -3.3890     1.9610 hc         1 LOU       0.043200
     31 H48          1.1420    -1.4770     2.6030 hc         1 LOU       0.052200
     32 H49         -0.2150    -0.4440     2.2310 hc         1 LOU       0.052200
     33 O31         -5.1230     1.9950    -0.2400 o          1 LOU      -0.836800
     34 OXT          4.2160     2.0200     1.2080 o          1 LOU      -0.845800
     35 H41          3.9940     0.0740    -2.1160 hn         1 LOU       0.322800
     36 H2           3.7250    -1.1710    -1.1510 hn         1 LOU       0.322800
@<TRIPOS>BOND
     1     1     2 1   
     2     1    10 1   
     3     1    33 1   
     4     2     3 1   
     5     2    21 1   
     6     2    22 1   
     7     3     4 1   
     8     3     6 1   
     9     4     5 2   
    10     4     8 1   
    11     6     7 1   
    12     6     9 2   
    13     7     8 1   
    14     7    14 1   
    15     7    23 1   
    16     8    16 1   
    17     8    24 1   
    18    11    12 1   
    19    11    35 1   
    20    11    36 1   
    21    12    13 1   
    22    12    19 1   
    23    12    25 1   
    24    13    14 1   
    25    13    26 1   
    26    13    27 1   
    27    14    15 1   
    28    14    18 1   
    29    15    16 1   
    30    16    17 1   
    31    16    28 1   
    32    17    18 1   
    33    17    29 1   
    34    17    30 1   
    35    18    31 1   
    36    18    32 1   
    37    19    20 1   
    38    19    34 1   
@<TRIPOS>SUBSTRUCTURE
     1 LOU         1 TEMP              0 ****  ****    0 ROOT
