@<TRIPOS>MOLECULE
LOU
   36    38     1     0     0
SMALL
No Charge or Current Charge


@<TRIPOS>ATOM
      1 C21         -4.3290     1.3150    -0.3540 c          1 LOU       0.717000
      2 C22         -3.3550     0.7620     0.7160 c3         1 LOU      -0.051000
      3 N23         -2.1200     0.1240     0.1700 n          1 LOU      -0.336400
      4 C24         -2.1960    -1.0830    -0.5240 c          1 LOU       0.584000
      5 O25         -3.2260    -1.6730    -0.8160 o          1 LOU      -0.549000
      6 C26         -0.8860     0.7700     0.2370 c          1 LOU       0.588000
      7 C27          0.0970    -0.1660    -0.4780 c5         1 LOU      -0.171700
      8 C28         -0.7580    -1.3800    -0.9720 c5         1 LOU      -0.185700
      9 O29         -0.6920     1.9020     0.6560 o          1 LOU      -0.504000
     10 O30         -3.8620     1.8870    -1.3300 o          1 LOU      -0.731500
     11 N52          3.8120    -0.6480    -1.3500 n8         1 LOU      -0.993200
     12 C53          3.3000     0.4400    -0.4350 c3         1 LOU       0.015500
     13 C54          2.4770    -0.1290     0.7630 c3         1 LOU      -0.038400
     14 C55          1.1280    -0.8660     0.4890 c5         1 LOU       0.192000
     15 O56          1.2800    -2.1330    -0.1580 os         1 LOU      -0.439000
     16 C57         -0.0820    -2.5720    -0.2070 c5         1 LOU       0.159300
     17 C58         -0.4650    -2.5280     1.3080 c5         1 LOU      -0.109400
     18 C59          0.3870    -1.3180     1.8040 c5         1 LOU      -0.112400
     19 C60          4.4020     1.4380     0.1130 c          1 LOU       0.694000
     20 O93          5.3790     0.9720     0.6860 o          1 LOU      -0.740500
     21 H19         -3.0880     1.5890     1.3840 h1         1 LOU       0.042200
     22 H20         -3.8930     0.0170     1.3160 h1         1 LOU       0.042200
     23 H21          0.5890     0.3820    -1.2850 hc         1 LOU       0.124700
     24 H22         -0.7350    -1.5470    -2.0540 hc         1 LOU       0.089700
     25 H42          2.6270     1.0670    -1.0340 h1         1 LOU       0.057700
     26 H43          3.1300    -0.7880     1.3480 hc         1 LOU       0.054700
     27 H44          2.2540     0.7160     1.4280 hc         1 LOU       0.054700
     28 H45         -0.1940    -3.5560    -0.6850 h1         1 LOU       0.072700
     29 H46         -1.5350    -2.4250     1.5150 hc         1 LOU       0.043200
     30 H47         -0.1500    -3.4520     1.8070 hc         1 LOU       0.043200
     31 H48          1.1070    -1.6500     2.5610 hc         1 LOU       0.052200
     32 H49         -0.2100    -0.5390     2.2890 hc         1 LOU       0.052200
     33 O31         -5.5290     1.1560    -0.1790 o          1 LOU      -0.731500
     34 OXT          4.2870     2.6280    -0.1460 o          1 LOU      -0.740500
     35 H41          4.3560    -0.2210    -2.1090 hn         1 LOU       0.378000
     36 H2           4.5110    -1.1990    -0.8390 hn         1 LOU       0.378000
@<TRIPOS>BOND
     1     1     2 1   
     2     1    10 1   
     3     1    33 1   
     4     2     3 1   
     5     2    21 1   
     6     2    22 1   
     7     3     4 1   
     8     3     6 1   
     9     4     5 2   
    10     4     8 1   
    11     6     7 1   
    12     6     9 2   
    13     7     8 1   
    14     7    14 1   
    15     7    23 1   
    16     8    16 1   
    17     8    24 1   
    18    11    12 1   
    19    11    35 1   
    20    11    36 1   
    21    12    13 1   
    22    12    19 1   
    23    12    25 1   
    24    13    14 1   
    25    13    26 1   
    26    13    27 1   
    27    14    15 1   
    28    14    18 1   
    29    15    16 1   
    30    16    17 1   
    31    16    28 1   
    32    17    18 1   
    33    17    29 1   
    34    17    30 1   
    35    18    31 1   
    36    18    32 1   
    37    19    20 1   
    38    19    34 1   
@<TRIPOS>SUBSTRUCTURE
     1 LOU         1 TEMP              0 ****  ****    0 ROOT
