@<TRIPOS>MOLECULE
LOV
   40    39     1     0     0
SMALL
bcc


@<TRIPOS>ATOM
      1 CD1          5.3290     0.8420    -0.6400 c3         1 LOV      -0.086100
      2 CD2          4.3320     0.3560     1.6090 c3         1 LOV      -0.086100
      3 C1G          4.2660     0.0490     0.1150 c3         1 LOV      -0.063700
      4 C1B          2.8820     0.3340    -0.4710 c3         1 LOV      -0.108400
      5 C1A          1.7300    -0.4660     0.1440 c3         1 LOV       0.123500
      6 CS           0.3960    -0.1220    -0.5390 c3         1 LOV       0.159100
      7 N            1.9300    -1.9130     0.1170 n8         1 LOV      -0.890800
      8 OS           0.3580    -0.6350    -1.8600 oh         1 LOV      -0.593800
      9 CT          -0.7960    -0.5930     0.2870 c3         1 LOV      -0.073400
     10 CA          -2.1640    -0.2170    -0.2840 c3         1 LOV      -0.182700
     11 CB          -3.3100    -0.7380     0.6020 c3         1 LOV      -0.038700
     12 CG1         -4.6710    -0.2280     0.1290 c3         1 LOV      -0.080600
     13 CG2         -3.3460    -2.2650     0.6560 c3         1 LOV      -0.080600
     14 C           -2.2660     1.3110    -0.4530 c          1 LOV       0.924600
     15 O           -2.0640     1.9980     0.5730 o          1 LOV      -0.844800
     16 OXT         -2.5490     1.7550    -1.5840 o          1 LOV      -0.844800
     17 HD11         6.3330     0.5960    -0.2900 hc         1 LOV       0.029033
     18 HD12         5.2910     0.6370    -1.7110 hc         1 LOV       0.029033
     19 HD13         5.1860     1.9170    -0.5050 hc         1 LOV       0.029033
     20 HD21         4.0680     1.4000     1.8000 hc         1 LOV       0.029033
     21 HD22         3.6510    -0.2660     2.1920 hc         1 LOV       0.029033
     22 HD23         5.3370     0.1910     2.0010 hc         1 LOV       0.029033
     23 H1G          4.4860    -1.0160    -0.0250 hc         1 LOV       0.028700
     24 H1B1         2.6700     1.4040    -0.3620 hc         1 LOV       0.054700
     25 H1B2         2.9080     0.1350    -1.5490 hc         1 LOV       0.054700
     26 H1A          1.6210    -0.1760     1.1940 h1         1 LOV       0.058700
     27 HS1          0.3510     0.9680    -0.6430 h1         1 LOV       0.099700
     28 H            2.3710    -2.1850    -0.7530 hn         1 LOV       0.325300
     29 H2           2.5780    -2.1880     0.8450 hn         1 LOV       0.325300
     30 HOS          0.2730    -1.5930    -1.7880 ho         1 LOV       0.388000
     31 HT1         -0.7080    -1.6760     0.4100 hc         1 LOV       0.031200
     32 HT2         -0.7030    -0.1670     1.2900 hc         1 LOV       0.031200
     33 HA          -2.2800    -0.6810    -1.2700 hc         1 LOV       0.039700
     34 HB          -3.1430    -0.3650     1.6200 hc         1 LOV       0.046700
     35 HG11        -4.8510    -0.5100    -0.9120 hc         1 LOV       0.018533
     36 HG12        -5.4750    -0.6580     0.7290 hc         1 LOV       0.018533
     37 HG13        -4.7560     0.8570     0.2000 hc         1 LOV       0.018533
     38 HG21        -3.5270    -2.6830    -0.3380 hc         1 LOV       0.018533
     39 HG22        -2.4190    -2.6980     1.0330 hc         1 LOV       0.018533
     40 HG23        -4.1520    -2.6100     1.3070 hc         1 LOV       0.018533
@<TRIPOS>BOND
     1     1     3 1   
     2     1    17 1   
     3     1    18 1   
     4     1    19 1   
     5     2     3 1   
     6     2    20 1   
     7     2    21 1   
     8     2    22 1   
     9     3     4 1   
    10     3    23 1   
    11     4     5 1   
    12     4    24 1   
    13     4    25 1   
    14     5     6 1   
    15     5     7 1   
    16     5    26 1   
    17     6     8 1   
    18     6     9 1   
    19     6    27 1   
    20     7    28 1   
    21     7    29 1   
    22     8    30 1   
    23     9    10 1   
    24     9    31 1   
    25     9    32 1   
    26    10    11 1   
    27    10    14 1   
    28    10    33 1   
    29    11    12 1   
    30    11    13 1   
    31    11    34 1   
    32    12    35 1   
    33    12    36 1   
    34    12    37 1   
    35    13    38 1   
    36    13    39 1   
    37    13    40 1   
    38    14    15 1   
    39    14    16 1   
@<TRIPOS>SUBSTRUCTURE
     1 LOV         1 TEMP              0 ****  ****    0 ROOT
