@<TRIPOS>MOLECULE
LOV
   40    39     1     0     0
SMALL
No Charge or Current Charge


@<TRIPOS>ATOM
      1 CD1          5.4130     0.9400    -0.6560 c3         1 LOV      -0.086100
      2 CD2          4.3810     0.3520     1.5940 c3         1 LOV      -0.086100
      3 C1G          4.3370     0.0980     0.0680 c3         1 LOV      -0.063700
      4 C1B          2.9290     0.3530    -0.5480 c3         1 LOV      -0.108400
      5 C1A          1.7670    -0.5160     0.0080 c3         1 LOV       0.123500
      6 CS           0.3820    -0.1060    -0.5900 c3         1 LOV       0.159100
      7 N            2.0470    -1.9530    -0.2490 n8         1 LOV      -0.890800
      8 OS           0.3170    -0.6440    -1.9150 oh         1 LOV      -0.593800
      9 CT          -0.8150    -0.6550     0.2390 c3         1 LOV      -0.073400
     10 CA          -2.2320    -0.2120    -0.2570 c3         1 LOV      -0.182700
     11 CB          -3.3970    -0.7230     0.6610 c3         1 LOV      -0.038700
     12 CG1         -4.7840    -0.2390     0.1680 c3         1 LOV      -0.080600
     13 CG2         -3.4110    -2.2650     0.8270 c3         1 LOV      -0.080600
     14 C           -2.2970     1.3270    -0.4550 c          1 LOV       0.924600
     15 O           -2.0990     2.0550     0.5110 o          1 LOV      -0.844800
     16 OXT         -2.5190     1.7690    -1.5750 o          1 LOV      -0.844800
     17 HD11         6.4110     0.7190    -0.2590 hc         1 LOV       0.029033
     18 HD12         5.4220     0.7180    -1.7300 hc         1 LOV       0.029033
     19 HD13         5.2220     2.0120    -0.5280 hc         1 LOV       0.029033
     20 HD21         4.0680     1.3770     1.8290 hc         1 LOV       0.029033
     21 HD22         3.7260    -0.3420     2.1320 hc         1 LOV       0.029033
     22 HD23         5.3980     0.2090     1.9800 hc         1 LOV       0.029033
     23 H1G          4.5990    -0.9540    -0.0980 hc         1 LOV       0.028700
     24 H1B1         2.6740     1.4100    -0.3990 hc         1 LOV       0.054700
     25 H1B2         2.9880     0.2070    -1.6340 hc         1 LOV       0.054700
     26 H1A          1.7210    -0.3640     1.0960 h1         1 LOV       0.058700
     27 HS1          0.3250     0.9920    -0.6080 h1         1 LOV       0.099700
     28 H            2.9860    -2.1710     0.0960 hn         1 LOV       0.325300
     29 H2           1.4240    -2.5250     0.3280 hn         1 LOV       0.325300
     30 HOS          0.9400    -1.4050    -1.8680 ho         1 LOV       0.388000
     31 HT1         -0.7560    -1.7490     0.2460 hc         1 LOV       0.031200
     32 HT2         -0.6930    -0.3300     1.2800 hc         1 LOV       0.031200
     33 HA          -2.3900    -0.6670    -1.2430 hc         1 LOV       0.039700
     34 HB          -3.2470    -0.2950     1.6600 hc         1 LOV       0.046700
     35 HG11        -4.9820    -0.5940    -0.8510 hc         1 LOV       0.018533
     36 HG12        -5.5810    -0.6170     0.8210 hc         1 LOV       0.018533
     37 HG13        -4.8520     0.8550     0.1730 hc         1 LOV       0.018533
     38 HG21        -3.4490    -2.7630    -0.1490 hc         1 LOV       0.018533
     39 HG22        -2.5230    -2.6180     1.3640 hc         1 LOV       0.018533
     40 HG23        -4.2850    -2.5840     1.4070 hc         1 LOV       0.018533
@<TRIPOS>BOND
     1     1     3 1   
     2     1    17 1   
     3     1    18 1   
     4     1    19 1   
     5     2     3 1   
     6     2    20 1   
     7     2    21 1   
     8     2    22 1   
     9     3     4 1   
    10     3    23 1   
    11     4     5 1   
    12     4    24 1   
    13     4    25 1   
    14     5     6 1   
    15     5     7 1   
    16     5    26 1   
    17     6     8 1   
    18     6     9 1   
    19     6    27 1   
    20     7    28 1   
    21     7    29 1   
    22     8    30 1   
    23     9    10 1   
    24     9    31 1   
    25     9    32 1   
    26    10    11 1   
    27    10    14 1   
    28    10    33 1   
    29    11    12 1   
    30    11    13 1   
    31    11    34 1   
    32    12    35 1   
    33    12    36 1   
    34    12    37 1   
    35    13    38 1   
    36    13    39 1   
    37    13    40 1   
    38    14    15 1   
    39    14    16 1   
@<TRIPOS>SUBSTRUCTURE
     1 LOV         1 TEMP              0 ****  ****    0 ROOT
