@<TRIPOS>MOLECULE
LOW
   29    31     1     0     0
SMALL
No Charge or Current Charge


@<TRIPOS>ATOM
      1 C7          -0.0100    -1.1600    -1.3280 c6         1 LOW      -0.052200
      2 C1          -0.0170     1.5050     0.0100 c6         1 LOW      -0.053400
      3 C8          -1.2930    -0.2800    -1.2700 c6         1 LOW      -0.099900
      4 C3           1.3130    -0.3020     1.2020 c6         1 LOW      -0.083900
      5 C2           1.2740     0.6330    -0.0460 c6         1 LOW       0.169200
      6 C4           0.0570    -1.2220     1.2150 c6         1 LOW      -0.052200
      7 C5          -1.2260    -0.3420     1.2670 c6         1 LOW      -0.099900
      8 C6           0.0370    -2.0860    -0.0790 c6         1 LOW      -0.072400
      9 C9           1.2460    -0.2400    -1.3370 c6         1 LOW      -0.083900
     10 N            2.4670     1.4970    -0.0560 n8         1 LOW      -0.984200
     11 C           -1.2800     0.5920     0.0210 c6         1 LOW       0.181000
     12 O           -2.4600     1.3960     0.0720 oh         1 LOW      -0.654000
     13 H1          -0.0240    -1.7730    -2.2410 hc         1 LOW       0.052700
     14 H2          -0.0070     2.1410     0.9050 hc         1 LOW       0.059200
     15 H3          -0.0540     2.1840    -0.8530 hc         1 LOW       0.059200
     16 H4          -1.3490     0.3600    -2.1620 hc         1 LOW       0.045700
     17 H5          -2.1860    -0.9210    -1.2920 hc         1 LOW       0.045700
     18 H6           2.2240    -0.9170     1.1930 hc         1 LOW       0.043700
     19 H7           1.3490     0.2920     2.1260 hc         1 LOW       0.043700
     20 H8           0.0910    -1.8780     2.0960 hc         1 LOW       0.052700
     21 H9          -2.1170    -0.9840     1.3050 hc         1 LOW       0.045700
     22 H10         -1.2340     0.2540     2.1910 hc         1 LOW       0.045700
     23 H11         -0.8320    -2.7590    -0.0720 hc         1 LOW       0.041700
     24 H12          0.9260    -2.7310    -0.1180 hc         1 LOW       0.041700
     25 H13          2.1550    -0.8540    -1.4060 hc         1 LOW       0.043700
     26 H14          1.2340     0.3980    -2.2320 hc         1 LOW       0.043700
     27 H15          3.0720     1.2280     0.7270 hn         1 LOW       0.392000
     28 H16          3.0290     1.2670    -0.8820 hn         1 LOW       0.392000
     29 H18         -3.2210     0.7760     0.0770 ho         1 LOW       0.439000
@<TRIPOS>BOND
     1     1     3 1   
     2     1     8 1   
     3     1     9 1   
     4     1    13 1   
     5     2     5 1   
     6     2    11 1   
     7     2    14 1   
     8     2    15 1   
     9     3    11 1   
    10     3    16 1   
    11     3    17 1   
    12     4     5 1   
    13     4     6 1   
    14     4    18 1   
    15     4    19 1   
    16     5     9 1   
    17     5    10 1   
    18     6     7 1   
    19     6     8 1   
    20     6    20 1   
    21     7    11 1   
    22     7    21 1   
    23     7    22 1   
    24     8    23 1   
    25     8    24 1   
    26     9    25 1   
    27     9    26 1   
    28    10    27 1   
    29    10    28 1   
    30    11    12 1   
    31    12    29 1   
@<TRIPOS>SUBSTRUCTURE
     1 LOW         1 TEMP              0 ****  ****    0 ROOT
