@<TRIPOS>MOLECULE
LOW
   29    31     1     0     0
SMALL
bcc


@<TRIPOS>ATOM
      1 C7           0.0200    -1.1910    -1.2740 c6         1 LOW      -0.052200
      2 C1           0.0150     1.4450     0.0160 c6         1 LOW      -0.053400
      3 C8          -1.2260    -0.3020    -1.2620 c6         1 LOW      -0.099900
      4 C3           1.2640    -0.3320     1.2340 c6         1 LOW      -0.083900
      5 C2           1.2800     0.5810     0.0050 c6         1 LOW       0.169200
      6 C4           0.0210    -1.2240     1.2190 c6         1 LOW      -0.052200
      7 C5          -1.2270    -0.3390     1.2290 c6         1 LOW      -0.099900
      8 C6           0.0220    -2.0930    -0.0400 c6         1 LOW      -0.072400
      9 C9           1.2640    -0.3010    -1.2540 c6         1 LOW      -0.083900
     10 N            2.4410     1.4590     0.0790 n8         1 LOW      -0.873800
     11 C           -1.2360     0.5700    -0.0030 c6         1 LOW       0.157800
     12 O           -2.3510     1.4440     0.0090 oh         1 LOW      -0.591800
     13 H1           0.0210    -1.8030    -2.1800 hc         1 LOW       0.052700
     14 H2           0.0150     2.0780     0.9090 hc         1 LOW       0.059200
     15 H3           0.0150     2.1070    -0.8580 hc         1 LOW       0.059200
     16 H4          -1.2460     0.3360    -2.1520 hc         1 LOW       0.045700
     17 H5          -2.1320    -0.9200    -1.2880 hc         1 LOW       0.045700
     18 H6           2.1710    -0.9480     1.2440 hc         1 LOW       0.043700
     19 H7           1.2820     0.2790     2.1420 hc         1 LOW       0.043700
     20 H8           0.0210    -1.8620     2.1070 hc         1 LOW       0.052700
     21 H9          -2.1320    -0.9600     1.2350 hc         1 LOW       0.045700
     22 H10         -1.2510     0.2730     2.1380 hc         1 LOW       0.045700
     23 H11         -0.8580    -2.7440    -0.0470 hc         1 LOW       0.041700
     24 H12          0.9030    -2.7410    -0.0490 hc         1 LOW       0.041700
     25 H13          2.1720    -0.9150    -1.2760 hc         1 LOW       0.043700
     26 H14          1.2880     0.3360    -2.1460 hc         1 LOW       0.043700
     27 H15          3.2850     0.8960     0.0470 hn         1 LOW       0.336800
     28 H16          2.4740     2.0370    -0.7540 hn         1 LOW       0.336800
     29 H18         -3.1500     0.9050     0.0040 ho         1 LOW       0.400000
@<TRIPOS>BOND
     1     1     3 1   
     2     1     8 1   
     3     1     9 1   
     4     1    13 1   
     5     2     5 1   
     6     2    11 1   
     7     2    14 1   
     8     2    15 1   
     9     3    11 1   
    10     3    16 1   
    11     3    17 1   
    12     4     5 1   
    13     4     6 1   
    14     4    18 1   
    15     4    19 1   
    16     5     9 1   
    17     5    10 1   
    18     6     7 1   
    19     6     8 1   
    20     6    20 1   
    21     7    11 1   
    22     7    21 1   
    23     7    22 1   
    24     8    23 1   
    25     8    24 1   
    26     9    25 1   
    27     9    26 1   
    28    10    27 1   
    29    10    28 1   
    30    11    12 1   
    31    12    29 1   
@<TRIPOS>SUBSTRUCTURE
     1 LOW         1 TEMP              0 ****  ****    0 ROOT
