@<TRIPOS>MOLECULE
LOX
   21    21     1     0     0
SMALL
No Charge or Current Charge


@<TRIPOS>ATOM
      1 C1           1.1940     0.0160    -0.1900 c2         1 LOX       0.553200
      2 C2           0.0600     1.0610    -0.3480 c6         1 LOX       0.098000
      3 C3          -1.2790     0.5560     0.2640 c6         1 LOX       0.173300
      4 C4          -1.6200    -0.8800    -0.2570 c6         1 LOX       0.165300
      5 C5          -0.4820    -1.8630     0.1650 c6         1 LOX       0.169800
      6 N1           0.8600    -1.3290    -0.1480 nu         1 LOX      -0.885400
      7 O22          3.3960    -0.7050     0.0130 oh         1 LOX      -0.522000
      8 N2           2.4490     0.3550    -0.1300 n2         1 LOX      -0.447700
      9 O2           0.3880     2.3700     0.2080 oh         1 LOX      -0.723000
     10 O3          -2.3090     1.5140    -0.0510 oh         1 LOX      -0.638000
     11 O4          -2.8880    -1.3440     0.2640 oh         1 LOX      -0.692000
     12 H2          -0.0970     1.1610    -1.4330 h1         1 LOX       0.074700
     13 H3          -1.1510     0.4980     1.3560 h1         1 LOX       0.050700
     14 H4          -1.6550    -0.8430    -1.3570 h1         1 LOX       0.053700
     15 H51         -0.6300    -2.8360    -0.3270 h1         1 LOX       0.049700
     16 H52         -0.5570    -2.0340     1.2490 h1         1 LOX       0.049700
     17 HN1          1.6820    -1.9150     0.0030 hn         1 LOX       0.491000
     18 HO22         4.2850    -0.2710     0.0380 ho         1 LOX       0.470000
     19 HO2          1.3630     2.4930     0.0830 ho         1 LOX       0.544000
     20 HO3         -1.8700     2.3880     0.0610 ho         1 LOX       0.462000
     21 HO4         -3.2260    -2.0240    -0.3640 ho         1 LOX       0.505000
@<TRIPOS>BOND
     1     1     2 1   
     2     1     6 1   
     3     1     8 2   
     4     2     3 1   
     5     2     9 1   
     6     2    12 1   
     7     3     4 1   
     8     3    10 1   
     9     3    13 1   
    10     4     5 1   
    11     4    11 1   
    12     4    14 1   
    13     5     6 1   
    14     5    15 1   
    15     5    16 1   
    16     6    17 1   
    17     7     8 1   
    18     7    18 1   
    19     9    19 1   
    20    10    20 1   
    21    11    21 1   
@<TRIPOS>SUBSTRUCTURE
     1 LOX         1 TEMP              0 ****  ****    0 ROOT
