@<TRIPOS>MOLECULE
LOX
   21    21     1     0     0
SMALL
bcc


@<TRIPOS>ATOM
      1 C1           1.1760    -0.0470    -0.2090 c2         1 LOX       0.553200
      2 C2           0.0940     0.9840    -0.4280 c6         1 LOX       0.074800
      3 C3          -1.2150     0.5600     0.2370 c6         1 LOX       0.150100
      4 C4          -1.5800    -0.8240    -0.2690 c6         1 LOX       0.142100
      5 C5          -0.4780    -1.8040     0.1260 c6         1 LOX       0.169800
      6 N1           0.8240    -1.3530    -0.3290 nu         1 LOX      -0.830200
      7 O22          3.3000    -0.5600     0.1270 oh         1 LOX      -0.384500
      8 N2           2.3480     0.4260    -0.0330 n2         1 LOX      -0.546200
      9 O2           0.4740     2.2480     0.0350 oh         1 LOX      -0.600800
     10 O3          -2.2470     1.4520    -0.0810 oh         1 LOX      -0.575800
     11 O4          -2.8090    -1.2080     0.2910 oh         1 LOX      -0.569800
     12 H2          -0.0890     1.0190    -1.5140 h1         1 LOX       0.074700
     13 H3          -1.0550     0.5100     1.3270 h1         1 LOX       0.050700
     14 H4          -1.6430    -0.7880    -1.3660 h1         1 LOX       0.053700
     15 H51         -0.6740    -2.7790    -0.3220 h1         1 LOX       0.049700
     16 H52         -0.4990    -1.9370     1.2140 h1         1 LOX       0.049700
     17 HN1          1.5690    -2.0150    -0.1810 hn         1 LOX       0.435800
     18 HO22         4.1220    -0.0730     0.2100 ho         1 LOX       0.431000
     19 HO2          1.4300     2.2180     0.1820 ho         1 LOX       0.445000
     20 HO3         -2.0100     2.3160     0.2700 ho         1 LOX       0.423000
     21 HO4         -3.1250    -1.9780    -0.1880 ho         1 LOX       0.406000
@<TRIPOS>BOND
     1     1     2 1   
     2     1     6 1   
     3     1     8 2   
     4     2     3 1   
     5     2     9 1   
     6     2    12 1   
     7     3     4 1   
     8     3    10 1   
     9     3    13 1   
    10     4     5 1   
    11     4    11 1   
    12     4    14 1   
    13     5     6 1   
    14     5    15 1   
    15     5    16 1   
    16     6    17 1   
    17     7     8 1   
    18     7    18 1   
    19     9    19 1   
    20    10    20 1   
    21    11    21 1   
@<TRIPOS>SUBSTRUCTURE
     1 LOX         1 TEMP              0 ****  ****    0 ROOT
