@<TRIPOS>MOLECULE
LOY
   94    97     1     0     0
SMALL
abcg2


@<TRIPOS>ATOM
      1 N           -2.9740     3.9200     2.6350 n7         1 LOY      -0.858400
      2 S           -2.7090     0.8610    -0.7650 s6         1 LOY       1.205100
      3 C1          -1.7180     5.6240     1.4620 c5         1 LOY      -0.095400
      4 N1          -3.5090    -0.4680    -0.2270 n7         1 LOY      -0.891300
      5 O1          -3.6370     1.5870    -1.6210 o          1 LOY      -0.515000
      6 C2          -2.5310     6.2480     2.5940 c5         1 LOY      -0.115400
      7 N2          -6.9700    -3.8880    -0.1720 na         1 LOY      -0.308300
      8 O2          -5.6210    -2.2460    -1.1170 os         1 LOY      -0.433000
      9 C3          -1.8650     4.1010     1.6900 c5         1 LOY       0.165500
     10 N3          -6.6810    -4.9100     1.7890 nc         1 LOY      -0.557100
     11 O3          -8.1090    -1.4700    -2.5980 oh         1 LOY      -0.697000
     12 C4          -2.1520     3.3350     0.3930 c3         1 LOY       0.120300
     13 C5          -2.3980     1.8630     0.6930 c3         1 LOY      -0.344400
     14 C6          -4.8920    -0.3750     0.2160 c3         1 LOY       0.223800
     15 N6          -8.7120    -5.2930    -1.1010 nb         1 LOY      -0.219000
     16 N7           2.9510     3.4060     0.4280 ns         1 LOY      -0.510900
     17 C8          -6.8210    -2.9430    -1.2730 c5         1 LOY       0.318300
     18 O10          8.7850    -3.7670    -1.1250 o          1 LOY      -0.647500
     19 P            8.9720    -3.7240     0.3270 p4         1 LOY       1.349900
     20 O9           8.9440    -4.7840     1.3320 o          1 LOY      -0.467000
     21 O8           9.2530    -2.3200     0.9510 os         1 LOY      -0.604400
     22 C23          9.5050     0.0650     1.1290 c3         1 LOY      -0.068000
     23 C24          8.2930     0.1700     2.0580 c3         1 LOY      -0.083600
     24 C25         10.7740    -0.1130     1.9680 c3         1 LOY      -0.083600
     25 C22          9.6630     1.3830     0.3180 c3         1 LOY       0.096300
     26 O7          10.7430     1.3420    -0.5750 oh         1 LOY      -0.645000
     27 C21          8.4020     1.7670    -0.4570 c          1 LOY       0.563100
     28 O6           8.1850     1.2670    -1.5550 o          1 LOY      -0.601100
     29 N8           7.6100     2.6720     0.1240 ns         1 LOY      -0.494900
     30 C20          6.3630     3.1410    -0.4360 c3         1 LOY       0.106000
     31 C19          5.1540     2.4340     0.1760 c3         1 LOY      -0.184400
     32 C18          3.8740     2.9580    -0.4380 c          1 LOY       0.597100
     33 O5           3.7160     2.9870    -1.6520 o          1 LOY      -0.583100
     34 C17          1.6820     3.9540     0.0110 c3         1 LOY       0.111000
     35 S1          -0.8930     3.6150    -0.8890 ss         1 LOY      -0.407000
     36 O           -1.4460     0.3770    -1.2990 o          1 LOY      -0.515000
     37 C7          -5.8590    -0.8680    -0.8380 c5         1 LOY       0.154300
     38 C10         -7.3210    -0.8030    -0.4100 c5         1 LOY       0.089300
     39 O4          -7.8420     0.4730    -0.6480 oh         1 LOY      -0.699000
     40 C9          -7.9420    -1.9040    -1.2780 c5         1 LOY       0.104300
     41 C15         -7.8470    -4.9310    -0.1540 ca         1 LOY       0.123500
     42 C12         -7.6540    -5.5510     1.0700 ca         1 LOY      -0.101600
     43 C11         -6.3000    -3.9320     1.0200 cd         1 LOY       0.408700
     44 C14         -9.4060    -6.3590    -0.7430 ca         1 LOY       0.183900
     45 N5          -9.3310    -7.0530     0.3900 nb         1 LOY      -0.303000
     46 C13         -8.4580    -6.6760     1.3310 ca         1 LOY       0.452900
     47 N4          -8.3810    -7.3690     2.4670 nv         1 LOY      -1.064900
     48 C27         -3.6350     5.2130     2.7810 c5         1 LOY       0.142800
     49 H1          -2.6050     3.6360     3.5320 hn         1 LOY       0.405000
     50 H3          -2.1440     5.9070     0.4960 hc         1 LOY       0.060200
     51 H4          -0.6760     5.9410     1.4520 hc         1 LOY       0.060200
     52 H5          -2.9220    -1.1240     0.2730 hn         1 LOY       0.494000
     53 H6          -1.9330     6.3240     3.5060 hc         1 LOY       0.051200
     54 H7          -2.9010     7.2450     2.3500 hc         1 LOY       0.051200
     55 H8          -0.9500     3.6970     2.1350 h1         1 LOY       0.037700
     56 H9          -8.4370    -0.5620    -2.5720 ho         1 LOY       0.527000
     57 H10         -3.0560     3.7520    -0.0600 h1         1 LOY       0.110700
     58 H11         -3.2740     1.7840     1.3400 h1         1 LOY       0.096200
     59 H12         -1.5600     1.3940     1.2120 h1         1 LOY       0.096200
     60 H13         -4.9920    -0.9550     1.1340 h1         1 LOY       0.052700
     61 H14         -5.1660     0.6520     0.4750 h1         1 LOY       0.052700
     62 H15          3.1310     3.3280     1.4150 hn         1 LOY       0.308500
     63 H16         -6.8140    -3.5260    -2.1980 h2         1 LOY       0.129700
     64 H19         10.1890    -1.1910    -0.5100 h1         1 LOY       0.060200
     65 H20          8.4250    -1.0140    -0.4300 h1         1 LOY       0.060200
     66 H21          8.2620    -0.6710     2.7500 hc         1 LOY       0.043200
     67 H22          8.3460     1.0770     2.6620 hc         1 LOY       0.043200
     68 H23          7.3480     0.1820     1.5140 hc         1 LOY       0.043200
     69 H24         11.6680    -0.1850     1.3480 hc         1 LOY       0.043200
     70 H25         10.8990     0.7360     2.6430 hc         1 LOY       0.043200
     71 H26         10.7200    -1.0090     2.5860 hc         1 LOY       0.043200
     72 H27          9.8840     2.1640     1.0530 h1         1 LOY       0.074700
     73 H28         10.4240     1.0020    -1.4210 ho         1 LOY       0.470000
     74 H29          7.8820     3.0460     1.0190 hn         1 LOY       0.313500
     75 H30          6.2980     4.2150    -0.2550 h1         1 LOY       0.075700
     76 H31          6.3850     2.9930    -1.5130 h1         1 LOY       0.075700
     77 H32          5.2180     1.3620    -0.0290 hc         1 LOY       0.062200
     78 H33          5.1600     2.5570     1.2600 hc         1 LOY       0.062200
     79 H34          1.3570     4.6700     0.7670 h1         1 LOY       0.063200
     80 H35          1.8250     4.5110    -0.9150 h1         1 LOY       0.063200
     81 H36          0.9640     2.1080    -0.8650 h1         1 LOY       0.080200
     82 H37          0.3820     2.3980     0.7650 h1         1 LOY       0.080200
     83 H38         -5.7150    -0.2820    -1.7530 h1         1 LOY       0.110700
     84 H39         -7.4150    -1.0830     0.6480 h1         1 LOY       0.049700
     85 H40         -8.6410     0.5840    -0.1240 ho         1 LOY       0.516000
     86 H41         -8.8730    -2.3020    -0.8560 h1         1 LOY       0.077700
     87 H42         -5.5270    -3.2220     1.2680 h5         1 LOY       0.065800
     88 H43        -10.1330    -6.7200    -1.4630 h5         1 LOY       0.048100
     89 H44         -8.9800    -8.1610     2.6210 hn         1 LOY       0.507500
     90 H45         -7.7470    -7.0990     3.1990 hn         1 LOY       0.507500
     91 H46         -4.3960     5.3340     2.0030 h1         1 LOY       0.056200
     92 H47         -4.1440     5.2730     3.7430 h1         1 LOY       0.056200
     93 C16          0.6150     2.8830    -0.1830 c3         1 LOY       0.028600
     94 C26          9.3350    -1.1040     0.1630 c3         1 LOY       0.227600
@<TRIPOS>BOND
     1     1     9 1   
     2     1    48 1   
     3     1    49 1   
     4     2     4 1   
     5     2     5 2   
     6     2    13 1   
     7     2    36 2   
     8     3     6 1   
     9     3     9 1   
    10     3    50 1   
    11     3    51 1   
    12     4    14 1   
    13     4    52 1   
    14     6    48 1   
    15     6    53 1   
    16     6    54 1   
    17     7    17 1   
    18     7    41 1   
    19     7    43 1   
    20     8    17 1   
    21     8    37 1   
    22     9    12 1   
    23     9    55 1   
    24    10    42 1   
    25    10    43 2   
    26    11    40 1   
    27    11    56 1   
    28    12    13 1   
    29    12    35 1   
    30    12    57 1   
    31    13    58 1   
    32    13    59 1   
    33    14    37 1   
    34    14    60 1   
    35    14    61 1   
    36    15    41 ar  
    37    15    44 ar  
    38    16    32 1   
    39    16    34 1   
    40    16    62 1   
    41    17    40 1   
    42    17    63 1   
    43    18    19 1   
    44    19    20 2   
    45    19    21 1   
    46    21    94 1   
    47    22    23 1   
    48    22    24 1   
    49    22    25 1   
    50    22    94 1   
    51    23    66 1   
    52    23    67 1   
    53    23    68 1   
    54    24    69 1   
    55    24    70 1   
    56    24    71 1   
    57    25    26 1   
    58    25    27 1   
    59    25    72 1   
    60    26    73 1   
    61    27    28 2   
    62    27    29 1   
    63    29    30 1   
    64    29    74 1   
    65    30    31 1   
    66    30    75 1   
    67    30    76 1   
    68    31    32 1   
    69    31    77 1   
    70    31    78 1   
    71    32    33 2   
    72    34    79 1   
    73    34    80 1   
    74    34    93 1   
    75    35    93 1   
    76    37    38 1   
    77    37    83 1   
    78    38    39 1   
    79    38    40 1   
    80    38    84 1   
    81    39    85 1   
    82    40    86 1   
    83    41    42 ar  
    84    42    46 ar  
    85    43    87 1   
    86    44    45 ar  
    87    44    88 1   
    88    45    46 ar  
    89    46    47 1   
    90    47    89 1   
    91    47    90 1   
    92    48    91 1   
    93    48    92 1   
    94    64    94 1   
    95    65    94 1   
    96    81    93 1   
    97    82    93 1   
@<TRIPOS>SUBSTRUCTURE
     1 LOY         1 TEMP              0 ****  ****    0 ROOT
