@<TRIPOS>MOLECULE
LOY
   94    97     1     0     0
SMALL
No Charge or Current Charge


@<TRIPOS>ATOM
      1 N           -2.8560     4.0410     2.6680 n7         1 LOY      -0.858400
      2 S           -3.1140     1.3870    -1.0930 s6         1 LOY       1.205100
      3 C1          -1.7290     5.8850     1.5720 c5         1 LOY      -0.095400
      4 N1          -3.1890    -0.2230    -0.6540 n7         1 LOY      -0.891300
      5 O1          -4.4890     1.8880    -1.1220 o          1 LOY      -0.515000
      6 C2          -1.9870     6.2260     3.0550 c5         1 LOY      -0.115400
      7 N2          -6.8670    -3.8020    -0.7310 na         1 LOY      -0.308300
      8 O2          -5.7770    -1.7090    -0.9360 os         1 LOY      -0.433000
      9 C3          -1.8430     4.3330     1.6060 c5         1 LOY       0.165500
     10 N3          -5.7870    -5.8390    -0.5950 nc         1 LOY      -0.557100
     11 O3          -8.4660    -0.5490     0.3060 oh         1 LOY      -0.697000
     12 C4          -2.1920     3.6780     0.2310 c3         1 LOY       0.120300
     13 C5          -2.2320     2.1280     0.2850 c3         1 LOY      -0.344400
     14 C6          -4.0340    -0.6610     0.4890 c3         1 LOY       0.223800
     15 N6          -9.1570    -4.7080    -0.9220 nb         1 LOY      -0.219000
     16 N7           3.0420     3.7370    -0.9500 ns         1 LOY      -0.510900
     17 C8          -7.0670    -2.3530    -0.7670 c5         1 LOY       0.318300
     18 O10          7.2490    -3.7320     2.6310 o          1 LOY      -0.647500
     19 P            7.6980    -2.7800     3.7250 p4         1 LOY       1.349900
     20 O9           7.6500    -2.8510     5.2340 o          1 LOY      -0.467000
     21 O8           8.3300    -1.3640     3.1450 os         1 LOY      -0.604400
     22 C23          9.0490     0.2340     1.4350 c3         1 LOY      -0.068000
     23 C24          8.1790     1.3510     2.0880 c3         1 LOY      -0.083600
     24 C25         10.4760     0.3070     2.0600 c3         1 LOY      -0.083600
     25 C22          9.1550     0.4920    -0.1150 c3         1 LOY       0.096300
     26 O7           9.9780    -0.5240    -0.7460 oh         1 LOY      -0.645000
     27 C21          7.7670     0.6020    -0.8280 c          1 LOY       0.563100
     28 O6           7.1360    -0.3860    -1.1840 o          1 LOY      -0.601100
     29 N8           7.3270     1.8840    -1.0970 ns         1 LOY      -0.494900
     30 C20          6.0280     2.2060    -1.6930 c3         1 LOY       0.106000
     31 C19          4.9100     2.1810    -0.6320 c3         1 LOY      -0.184400
     32 C18          3.5570     2.4990    -1.2630 c          1 LOY       0.597100
     33 O5           2.9570     1.6990    -1.9670 o          1 LOY      -0.583100
     34 C17          1.7280     4.2280    -1.3820 c3         1 LOY       0.111000
     35 S1          -1.0600     4.2630    -1.1280 ss         1 LOY      -0.407000
     36 O           -2.2940     1.4180    -2.3040 o          1 LOY      -0.515000
     37 C7          -5.5530    -0.7970     0.1690 c5         1 LOY       0.154300
     38 C10         -6.4050    -1.3990     1.3260 c5         1 LOY       0.089300
     39 O4          -6.6680    -0.4690     2.3910 oh         1 LOY      -0.699000
     40 C9          -7.6980    -1.7440     0.5370 c5         1 LOY       0.104300
     41 C15         -7.8170    -4.7860    -0.8020 ca         1 LOY       0.123500
     42 C12         -7.1630    -5.9900    -0.7200 ca         1 LOY      -0.101600
     43 C11         -5.6500    -4.4990    -0.6110 cd         1 LOY       0.408700
     44 C14         -9.8200    -5.8880    -0.9560 ca         1 LOY       0.183900
     45 N5          -9.2720    -7.1250    -0.8820 nb         1 LOY      -0.303000
     46 C13         -7.9360    -7.1690    -0.7670 ca         1 LOY       0.452900
     47 N4          -7.3850    -8.4100    -0.6910 nv         1 LOY      -1.064900
     48 C27         -3.2270     5.3390     3.2880 c5         1 LOY       0.142800
     49 H1          -2.4010     3.4550     3.3790 hn         1 LOY       0.405000
     50 H3          -2.4850     6.3350     0.9170 hc         1 LOY       0.060200
     51 H4          -0.7460     6.2250     1.2260 hc         1 LOY       0.060200
     52 H5          -2.2140    -0.3820    -0.4070 hn         1 LOY       0.494000
     53 H6          -1.1480     5.9390     3.7000 hc         1 LOY       0.051200
     54 H7          -2.1930     7.2900     3.2190 hc         1 LOY       0.051200
     55 H8          -0.8810     3.9180     1.9360 h1         1 LOY       0.037700
     56 H9          -8.2420     0.0330     1.0750 ho         1 LOY       0.527000
     57 H10         -3.2010     4.0370    -0.0190 h1         1 LOY       0.110700
     58 H11         -2.7810     1.8210     1.1800 h1         1 LOY       0.096200
     59 H12         -1.2280     1.6950     0.3150 h1         1 LOY       0.096200
     60 H13         -3.6950    -1.6540     0.8180 h1         1 LOY       0.052700
     61 H14         -3.9160     0.0040     1.3550 h1         1 LOY       0.052700
     62 H15          3.6090     4.3320    -0.3550 hn         1 LOY       0.308500
     63 H16         -7.7140    -2.1550    -1.6320 h2         1 LOY       0.129700
     64 H19          9.0250    -1.9510     1.2600 h1         1 LOY       0.060200
     65 H20          7.4090    -1.2150     1.2750 h1         1 LOY       0.060200
     66 H21          8.1840     1.2690     3.1830 hc         1 LOY       0.043200
     67 H22          8.5610     2.3470     1.8320 hc         1 LOY       0.043200
     68 H23          7.1340     1.2900     1.7600 hc         1 LOY       0.043200
     69 H24         11.1160    -0.5030     1.6900 hc         1 LOY       0.043200
     70 H25         10.9620     1.2600     1.8160 hc         1 LOY       0.043200
     71 H26         10.4380     0.2250     3.1540 hc         1 LOY       0.043200
     72 H27          9.6420     1.4680    -0.2510 h1         1 LOY       0.074700
     73 H28          9.3700    -1.1220    -1.2400 ho         1 LOY       0.470000
     74 H29          7.9270     2.6490    -0.8050 hn         1 LOY       0.313500
     75 H30          6.0870     3.2060    -2.1490 h1         1 LOY       0.075700
     76 H31          5.8050     1.4840    -2.4920 h1         1 LOY       0.075700
     77 H32          4.8640     1.1760    -0.1950 hc         1 LOY       0.062200
     78 H33          5.1510     2.9160     0.1470 hc         1 LOY       0.062200
     79 H34          1.6930     5.3150    -1.2300 h1         1 LOY       0.063200
     80 H35          1.6040     4.0300    -2.4550 h1         1 LOY       0.063200
     81 H36          0.5850     2.4850    -0.7740 h1         1 LOY       0.080200
     82 H37          0.7280     3.7500     0.4730 h1         1 LOY       0.080200
     83 H38         -5.9470     0.1880    -0.1100 h1         1 LOY       0.110700
     84 H39         -5.9300    -2.3110     1.7160 h1         1 LOY       0.049700
     85 H40         -6.7720    -0.9880     3.2250 ho         1 LOY       0.516000
     86 H41         -8.3040    -2.4910     1.0700 h1         1 LOY       0.077700
     87 H42         -4.7070    -3.9700    -0.5330 h5         1 LOY       0.065800
     88 H43        -10.9030    -5.8380    -1.0510 h5         1 LOY       0.048100
     89 H44         -7.9890    -9.1850    -0.4320 hn         1 LOY       0.507500
     90 H45         -6.4160    -8.4640    -0.3850 hn         1 LOY       0.507500
     91 H46         -4.1040     5.7670     2.7800 h1         1 LOY       0.056200
     92 H47         -3.4770     5.2330     4.3540 h1         1 LOY       0.056200
     93 C16          0.5770     3.5680    -0.5980 c3         1 LOY       0.028600
     94 C26          8.4110    -1.1660     1.7220 c3         1 LOY       0.227600
@<TRIPOS>BOND
     1     1     9 1   
     2     1    48 1   
     3     1    49 1   
     4     2     4 1   
     5     2     5 2   
     6     2    13 1   
     7     2    36 2   
     8     3     6 1   
     9     3     9 1   
    10     3    50 1   
    11     3    51 1   
    12     4    14 1   
    13     4    52 1   
    14     6    48 1   
    15     6    53 1   
    16     6    54 1   
    17     7    17 1   
    18     7    41 1   
    19     7    43 1   
    20     8    17 1   
    21     8    37 1   
    22     9    12 1   
    23     9    55 1   
    24    10    42 1   
    25    10    43 2   
    26    11    40 1   
    27    11    56 1   
    28    12    13 1   
    29    12    35 1   
    30    12    57 1   
    31    13    58 1   
    32    13    59 1   
    33    14    37 1   
    34    14    60 1   
    35    14    61 1   
    36    15    41 ar  
    37    15    44 ar  
    38    16    32 1   
    39    16    34 1   
    40    16    62 1   
    41    17    40 1   
    42    17    63 1   
    43    18    19 1   
    44    19    20 2   
    45    19    21 1   
    46    21    94 1   
    47    22    23 1   
    48    22    24 1   
    49    22    25 1   
    50    22    94 1   
    51    23    66 1   
    52    23    67 1   
    53    23    68 1   
    54    24    69 1   
    55    24    70 1   
    56    24    71 1   
    57    25    26 1   
    58    25    27 1   
    59    25    72 1   
    60    26    73 1   
    61    27    28 2   
    62    27    29 1   
    63    29    30 1   
    64    29    74 1   
    65    30    31 1   
    66    30    75 1   
    67    30    76 1   
    68    31    32 1   
    69    31    77 1   
    70    31    78 1   
    71    32    33 2   
    72    34    79 1   
    73    34    80 1   
    74    34    93 1   
    75    35    93 1   
    76    37    38 1   
    77    37    83 1   
    78    38    39 1   
    79    38    40 1   
    80    38    84 1   
    81    39    85 1   
    82    40    86 1   
    83    41    42 ar  
    84    42    46 ar  
    85    43    87 1   
    86    44    45 ar  
    87    44    88 1   
    88    45    46 ar  
    89    46    47 1   
    90    47    89 1   
    91    47    90 1   
    92    48    91 1   
    93    48    92 1   
    94    64    94 1   
    95    65    94 1   
    96    81    93 1   
    97    82    93 1   
@<TRIPOS>SUBSTRUCTURE
     1 LOY         1 TEMP              0 ****  ****    0 ROOT
