@<TRIPOS>MOLECULE
LP1
  116   119     1     0     0
SMALL
bcc


@<TRIPOS>ATOM
      1 C1           1.7130    -3.3970     8.6240 c3         1 LP1      -0.182100
      2 C2           1.3570    -2.1860     7.7950 c          1 LP1       0.682100
      3 C7          -1.8170    -0.7070     7.2450 ca         1 LP1      -0.071300
      4 C8          -1.6820    -0.7060     8.6100 ca         1 LP1      -0.113000
      5 C9          -2.7250    -1.1250     9.4590 ca         1 LP1      -0.126000
      6 C10         -3.9110    -1.5500     8.9300 ca         1 LP1      -0.117000
      7 C11         -3.0520    -1.1330     6.6730 ca         1 LP1      -0.029000
      8 C12         -4.1030    -1.5620     7.5290 ca         1 LP1      -0.039000
      9 C13         -3.2880    -1.1400     5.2760 ca         1 LP1      -0.128000
     10 C14         -5.3290    -1.9880     6.9660 ca         1 LP1      -0.114000
     11 C15         -4.4850    -1.5560     4.7580 ca         1 LP1      -0.122000
     12 C16         -5.5190    -1.9910     5.6120 ca         1 LP1      -0.128000
     13 C20          1.7810     0.1980     2.8300 c3         1 LP1       0.040700
     14 C21          1.0910     1.3860     2.1650 c          1 LP1       0.660100
     15 N26          1.9100     2.3350     1.6870 ns         1 LP1      -0.569900
     16 C27          1.4660     3.5380     1.0020 c3         1 LP1       0.075700
     17 C30          2.8040     6.2020     3.5110 c3         1 LP1      -0.091100
     18 C31          0.5140     5.1910     3.4310 c3         1 LP1      -0.091100
     19 C32          1.6610     3.4180    -0.5170 c3         1 LP1       0.143100
     20 C33          0.7970     2.3100    -1.1170 c3         1 LP1      -0.196400
     21 C35          0.9880     2.2400    -2.6150 c          1 LP1       0.683100
     22 O3           1.7810    -1.0690     8.0460 o          1 LP1      -0.595100
     23 N4           0.5250    -2.4510     6.7670 ns         1 LP1      -0.562900
     24 C5           0.0920    -1.5000     5.7830 c3         1 LP1       0.050700
     25 C6          -0.6630    -0.2900     6.3790 c3         1 LP1      -0.042100
     26 C17          1.2530    -1.0650     4.8750 c          1 LP1       0.656100
     27 O18          2.4050    -1.4070     5.0670 o          1 LP1      -0.582100
     28 N19          0.8750    -0.2930     3.8410 ns         1 LP1      -0.575900
     29 O22         -0.1270     1.4260     2.0630 o          1 LP1      -0.617100
     30 C23          2.1680    -0.9010     1.8100 c3         1 LP1      -0.079700
     31 C25          3.2210    -0.4310     0.8130 c3         1 LP1      -0.088600
     32 C28          2.1830     4.7600     1.5690 c3         1 LP1      -0.087400
     33 C29          1.9820     4.9960     3.0670 c3         1 LP1      -0.059700
     34 O34          3.0160     3.2660    -0.8770 oh         1 LP1      -0.590800
     35 O36          0.7430     3.1940    -3.3380 o          1 LP1      -0.603100
     36 N37          1.4560     1.0630    -3.0690 ns         1 LP1      -0.564900
     37 C38          1.7220     0.7660    -4.4530 c3         1 LP1       0.032700
     38 C39          3.2260     0.7810    -4.7690 c3         1 LP1      -0.085400
     39 C40          3.8780     2.1280    -4.5000 c3         1 LP1      -0.091100
     40 C41          1.1630    -0.6160    -4.7650 c          1 LP1       0.647100
     41 O42          1.0690    -1.4820    -3.9120 o          1 LP1      -0.592100
     42 N43          0.8550    -0.8330    -6.0560 ns         1 LP1      -0.575900
     43 C44          0.3550    -2.1100    -6.5030 c3         1 LP1       0.027700
     44 C45         -0.1210    -2.0040    -7.9600 c3         1 LP1      -0.043100
     45 C46         -1.2750    -1.0540    -8.1250 ca         1 LP1      -0.076300
     46 C47         -1.0580     0.1940    -8.6540 ca         1 LP1      -0.132000
     47 C48         -2.1020     1.1310    -8.7920 ca         1 LP1      -0.127000
     48 C49         -3.3680     0.8070    -8.3980 ca         1 LP1      -0.107000
     49 C50         -2.5930    -1.4170    -7.7180 ca         1 LP1      -0.024000
     50 C51         -3.6440    -0.4710    -7.8570 ca         1 LP1      -0.035000
     51 C52         -2.9050    -2.6920    -7.1850 ca         1 LP1      -0.122000
     52 C53         -4.9550    -0.8250    -7.4580 ca         1 LP1      -0.117000
     53 C54         -4.1830    -3.0060    -6.8080 ca         1 LP1      -0.119000
     54 C55         -5.2210    -2.0630    -6.9430 ca         1 LP1      -0.122000
     55 C56          1.3870    -3.2340    -6.4090 c          1 LP1       0.668100
     56 O57          1.0150    -4.3870    -6.2570 o          1 LP1      -0.599100
     57 N58          2.6640    -2.8740    -6.5690 nt         1 LP1      -0.666000
     58 H11          2.3170    -4.0930     8.0410 hc         1 LP1       0.060700
     59 H12          2.2780    -3.0990     9.5030 hc         1 LP1       0.060700
     60 H13A         0.8190    -3.9330     8.9450 hc         1 LP1       0.060700
     61 H8          -0.7480    -0.3770     9.0500 ha         1 LP1       0.145000
     62 H9          -2.5790    -1.1100    10.5310 ha         1 LP1       0.133000
     63 H10         -4.7190    -1.8760     9.5750 ha         1 LP1       0.131000
     64 H13         -2.5200    -0.8010     4.5930 ha         1 LP1       0.125000
     65 H14         -6.1220    -2.3130     7.6290 ha         1 LP1       0.130000
     66 H15         -4.6400    -1.5500     3.6870 ha         1 LP1       0.132000
     67 H16         -6.4600    -2.3210     5.1930 ha         1 LP1       0.132000
     68 H20          2.7000     0.5340     3.3200 h1         1 LP1       0.078700
     69 H241         1.2930    -2.3290     0.4560 hc         1 LP1       0.037033
     70 H242         0.2430    -1.9250     1.8020 hc         1 LP1       0.037033
     71 H243         0.4420    -0.7900     0.4690 hc         1 LP1       0.037033
     72 HNQ          2.8900     2.2690     1.9190 hn         1 LP1       0.317500
     73 H27          0.3930     3.6350     1.1770 h1         1 LP1       0.088700
     74 H301         2.7260     6.3560     4.5880 hc         1 LP1       0.036033
     75 H302         3.8620     6.0790     3.2690 hc         1 LP1       0.036033
     76 H303         2.4560     7.1140     3.0210 hc         1 LP1       0.036033
     77 H311         0.0840     6.0260     2.8700 hc         1 LP1       0.036033
     78 H312        -0.0900     4.3070     3.2250 hc         1 LP1       0.036033
     79 H313         0.4050     5.4170     4.4930 hc         1 LP1       0.036033
     80 H32          1.3440     4.3670    -0.9560 h1         1 LP1       0.098700
     81 H331        -0.2550     2.5150    -0.9080 hc         1 LP1       0.075200
     82 H332         1.0250     1.3490    -0.6470 hc         1 LP1       0.075200
     83 HN4          0.2430    -3.4060     6.6250 hn         1 LP1       0.317500
     84 H5          -0.6070    -2.0480     5.1440 h1         1 LP1       0.061700
     85 H61          0.0310     0.3190     6.9550 hc         1 LP1       0.070700
     86 H62         -1.0180     0.3450     5.5650 hc         1 LP1       0.070700
     87 HNJ         -0.1010    -0.0900     3.6890 hn         1 LP1       0.336500
     88 H23          2.6330    -1.6850     2.4140 hc         1 LP1       0.073700
     89 H251         2.8040     0.2380     0.0580 hc         1 LP1       0.037033
     90 H252         4.0520     0.0830     1.2990 hc         1 LP1       0.037033
     91 H253         3.6350    -1.2870     0.2790 hc         1 LP1       0.037033
     92 H281         3.2530     4.6790     1.3560 hc         1 LP1       0.054700
     93 H282         1.8270     5.6400     1.0210 hc         1 LP1       0.054700
     94 H29          2.3560     4.1200     3.6090 hc         1 LP1       0.044700
     95 HOY          3.3410     2.4170    -0.5580 ho         1 LP1       0.398000
     96 HN7          1.5810     0.3050    -2.4180 hn         1 LP1       0.330500
     97 H38          1.2210     1.5200    -5.0640 h1         1 LP1       0.091700
     98 H391         3.3620     0.5130    -5.8200 hc         1 LP1       0.042200
     99 H392         3.7190     0.0030    -4.1800 hc         1 LP1       0.042200
    100 H401         4.9340     2.0950    -4.7670 hc         1 LP1       0.044033
    101 H402         3.4090     2.9210    -5.0840 hc         1 LP1       0.044033
    102 H403         3.8130     2.4050    -3.4470 hc         1 LP1       0.044033
    103 HN3          0.8710    -0.0590    -6.7020 hn         1 LP1       0.326500
    104 H44         -0.4810    -2.4170    -5.8690 h1         1 LP1       0.101700
    105 H451         0.7140    -1.6750    -8.5840 hc         1 LP1       0.064700
    106 H452        -0.3850    -3.0040    -8.3090 hc         1 LP1       0.064700
    107 H47         -0.0630     0.4690    -8.9820 ha         1 LP1       0.122000
    108 H48         -1.8890     2.1050    -9.2120 ha         1 LP1       0.134000
    109 H49         -4.1760     1.5220    -8.4990 ha         1 LP1       0.134000
    110 H52         -2.1310    -3.4390    -7.0740 ha         1 LP1       0.141000
    111 H53         -5.7490    -0.0970    -7.5690 ha         1 LP1       0.132000
    112 H54         -4.4000    -3.9870    -6.4060 ha         1 LP1       0.135000
    113 H55         -6.2270    -2.3250    -6.6420 ha         1 LP1       0.133000
    114 HN1          3.3940    -3.5680    -6.5720 hn         1 LP1       0.314500
    115 HN2          2.9330    -1.9170    -6.7200 hn         1 LP1       0.314500
    116 C24          0.9660    -1.5110     1.0990 c3         1 LP1      -0.088600
@<TRIPOS>BOND
     1     1     2 1   
     2     1    58 1   
     3     1    59 1   
     4     1    60 1   
     5     2    22 2   
     6     2    23 1   
     7     3     4 ar  
     8     3     7 ar  
     9     3    25 1   
    10     4     5 ar  
    11     4    61 1   
    12     5     6 ar  
    13     5    62 1   
    14     6     8 ar  
    15     6    63 1   
    16     7     8 ar  
    17     7     9 ar  
    18     8    10 ar  
    19     9    11 ar  
    20     9    64 1   
    21    10    12 ar  
    22    10    65 1   
    23    11    12 ar  
    24    11    66 1   
    25    12    67 1   
    26    13    14 1   
    27    13    28 1   
    28    13    30 1   
    29    13    68 1   
    30    14    15 1   
    31    14    29 2   
    32    15    16 1   
    33    15    72 1   
    34    16    19 1   
    35    16    32 1   
    36    16    73 1   
    37    17    33 1   
    38    17    74 1   
    39    17    75 1   
    40    17    76 1   
    41    18    33 1   
    42    18    77 1   
    43    18    78 1   
    44    18    79 1   
    45    19    20 1   
    46    19    34 1   
    47    19    80 1   
    48    20    21 1   
    49    20    81 1   
    50    20    82 1   
    51    21    35 2   
    52    21    36 1   
    53    23    24 1   
    54    23    83 1   
    55    24    25 1   
    56    24    26 1   
    57    24    84 1   
    58    25    85 1   
    59    25    86 1   
    60    26    27 2   
    61    26    28 1   
    62    28    87 1   
    63    30    31 1   
    64    30    88 1   
    65    30   116 1   
    66    31    89 1   
    67    31    90 1   
    68    31    91 1   
    69    32    33 1   
    70    32    92 1   
    71    32    93 1   
    72    33    94 1   
    73    34    95 1   
    74    36    37 1   
    75    36    96 1   
    76    37    38 1   
    77    37    40 1   
    78    37    97 1   
    79    38    39 1   
    80    38    98 1   
    81    38    99 1   
    82    39   100 1   
    83    39   101 1   
    84    39   102 1   
    85    40    41 2   
    86    40    42 1   
    87    42    43 1   
    88    42   103 1   
    89    43    44 1   
    90    43    55 1   
    91    43   104 1   
    92    44    45 1   
    93    44   105 1   
    94    44   106 1   
    95    45    46 ar  
    96    45    49 ar  
    97    46    47 ar  
    98    46   107 1   
    99    47    48 ar  
   100    47   108 1   
   101    48    50 ar  
   102    48   109 1   
   103    49    50 ar  
   104    49    51 ar  
   105    50    52 ar  
   106    51    53 ar  
   107    51   110 1   
   108    52    54 ar  
   109    52   111 1   
   110    53    54 ar  
   111    53   112 1   
   112    54   113 1   
   113    55    56 2   
   114    55    57 1   
   115    57   114 1   
   116    57   115 1   
   117    69   116 1   
   118    70   116 1   
   119    71   116 1   
@<TRIPOS>SUBSTRUCTURE
     1 LP1         1 TEMP              0 ****  ****    0 ROOT
