@<TRIPOS>MOLECULE
LP1
  116   119     1     0     0
SMALL
No Charge or Current Charge


@<TRIPOS>ATOM
      1 C1          -0.1120    -3.0050     8.3860 c3         1 LP1      -0.182100
      2 C2          -0.1220    -1.9260     7.3110 c          1 LP1       0.615100
      3 C7          -3.0510    -0.7680     5.5950 ca         1 LP1      -0.071300
      4 C8          -3.3260    -0.5560     6.9630 ca         1 LP1      -0.095000
      5 C9          -4.5500    -0.9510     7.5210 ca         1 LP1      -0.108000
      6 C10         -5.5220    -1.5620     6.7170 ca         1 LP1      -0.099000
      7 C11         -4.0390    -1.3820     4.7740 ca         1 LP1      -0.029000
      8 C12         -5.2730    -1.7780     5.3490 ca         1 LP1      -0.039000
      9 C13         -3.8330    -1.6100     3.3910 ca         1 LP1      -0.110000
     10 C14         -6.2650    -2.3900     4.5570 ca         1 LP1      -0.096000
     11 C15         -4.8290    -2.2180     2.6070 ca         1 LP1      -0.104000
     12 C16         -6.0440    -2.6090     3.1890 ca         1 LP1      -0.110000
     13 C20          1.7940     0.1960     2.3700 c3         1 LP1       0.040700
     14 C21          1.3620     1.4450     1.5440 c          1 LP1       0.593100
     15 N26          2.3820     2.3070     1.1870 ns         1 LP1      -0.502900
     16 C27          2.1970     3.5660     0.4410 c3         1 LP1       0.075700
     17 C30          3.9090     6.0410     3.0400 c3         1 LP1      -0.091100
     18 C31          1.4570     5.3690     2.9220 c3         1 LP1      -0.091100
     19 C32          2.3960     3.3830    -1.0990 c3         1 LP1       0.166300
     20 C33          1.3650     2.4240    -1.7260 c3         1 LP1      -0.196400
     21 C35          1.4700     2.3840    -3.2450 c          1 LP1       0.616100
     22 O3           0.2220    -0.7760     7.5400 o          1 LP1      -0.595100
     23 N4          -0.5520    -2.3560     6.0740 ns         1 LP1      -0.495900
     24 C5          -0.6950    -1.5120     4.8590 c3         1 LP1       0.050700
     25 C6          -1.6850    -0.3240     5.0550 c3         1 LP1      -0.042100
     26 C17          0.6920    -1.0870     4.2730 c          1 LP1       0.589100
     27 O18          1.7660    -1.4360     4.7470 o          1 LP1      -0.582100
     28 N19          0.6310    -0.2890     3.1480 ns         1 LP1      -0.508900
     29 O22          0.1930     1.6720     1.2530 o          1 LP1      -0.617100
     30 C23          2.3890    -0.9570     1.4960 c3         1 LP1      -0.079700
     31 C25          3.7220    -0.5780     0.8080 c3         1 LP1      -0.088600
     32 C28          3.0930     4.6870     1.0350 c3         1 LP1      -0.087400
     33 C29          2.9070     4.9690     2.5560 c3         1 LP1      -0.059700
     34 O34          3.7110     2.8830    -1.3770 oh         1 LP1      -0.653000
     35 O36          1.1240     3.3200    -3.9520 o          1 LP1      -0.603100
     36 N37          1.9100     1.1870    -3.7600 ns         1 LP1      -0.497900
     37 C38          1.9190     0.8240    -5.1930 c3         1 LP1       0.032700
     38 C39          3.3380     0.9490    -5.8030 c3         1 LP1      -0.085400
     39 C40          3.9250     2.3770    -5.7590 c3         1 LP1      -0.091100
     40 C41          1.3630    -0.6180    -5.3370 c          1 LP1       0.580100
     41 O42          1.5220    -1.4790    -4.4810 o          1 LP1      -0.592100
     42 N43          0.6350    -0.8570    -6.4860 ns         1 LP1      -0.508900
     43 C44         -0.3190    -1.9860    -6.6350 c3         1 LP1       0.027700
     44 C45         -1.7570    -1.5610    -6.2170 c3         1 LP1      -0.043100
     45 C46         -1.8090    -0.8150    -4.8740 ca         1 LP1      -0.076300
     46 C47         -1.8700     0.5950    -4.9050 ca         1 LP1      -0.114000
     47 C48         -1.8850     1.3440    -3.7180 ca         1 LP1      -0.109000
     48 C49         -1.8440     0.6930    -2.4790 ca         1 LP1      -0.089000
     49 C50         -1.7660    -1.4780    -3.6160 ca         1 LP1      -0.024000
     50 C51         -1.7880    -0.7110    -2.4220 ca         1 LP1      -0.035000
     51 C52         -1.6980    -2.8880    -3.5120 ca         1 LP1      -0.104000
     52 C53         -1.7510    -1.3450    -1.1660 ca         1 LP1      -0.099000
     53 C54         -1.6590    -3.5130    -2.2540 ca         1 LP1      -0.101000
     54 C55         -1.6870    -2.7440    -1.0810 ca         1 LP1      -0.104000
     55 C56         -0.2490    -2.6260    -8.0550 c          1 LP1       0.601100
     56 O57         -1.2080    -3.1140    -8.6330 o          1 LP1      -0.599100
     57 N58          0.9540    -2.5830    -8.6760 nt         1 LP1      -0.599000
     58 H11          0.4910    -3.8520     8.0370 hc         1 LP1       0.060700
     59 H12          0.2370    -2.6320     9.3560 hc         1 LP1       0.060700
     60 H13A        -1.1130    -3.4450     8.4580 hc         1 LP1       0.060700
     61 H8          -2.5830    -0.0830     7.6030 ha         1 LP1       0.127000
     62 H9          -4.7460    -0.7820     8.5780 ha         1 LP1       0.115000
     63 H10         -6.4700    -1.8650     7.1580 ha         1 LP1       0.113000
     64 H13         -2.9100    -1.3220     2.8990 ha         1 LP1       0.107000
     65 H14         -7.2110    -2.6940     5.0020 ha         1 LP1       0.112000
     66 H15         -4.6580    -2.3860     1.5450 ha         1 LP1       0.114000
     67 H16         -6.8140    -3.0800     2.5800 ha         1 LP1       0.114000
     68 H20          2.5610     0.5330     3.0800 h1         1 LP1       0.078700
     69 H241         1.8220    -2.3710    -0.0800 hc         1 LP1       0.037033
     70 H242         0.4760    -1.9000     0.9680 hc         1 LP1       0.037033
     71 H243         1.0810    -0.7700    -0.2630 hc         1 LP1       0.037033
     72 HNQ          3.3070     2.0810     1.5340 hn         1 LP1       0.317500
     73 H27          1.1570     3.8900     0.5770 h1         1 LP1       0.088700
     74 H301         3.8170     6.2000     4.1210 hc         1 LP1       0.036033
     75 H302         4.9400     5.7320     2.8310 hc         1 LP1       0.036033
     76 H303         3.7290     6.9990     2.5360 hc         1 LP1       0.036033
     77 H311         1.1360     6.2470     2.3470 hc         1 LP1       0.036033
     78 H312         0.7570     4.5500     2.7230 hc         1 LP1       0.036033
     79 H313         1.3810     5.6140     3.9880 hc         1 LP1       0.036033
     80 H32          2.2630     4.3680    -1.5710 h1         1 LP1       0.098700
     81 H331         0.3630     2.7830    -1.4690 hc         1 LP1       0.075200
     82 H332         1.5060     1.4180    -1.3170 hc         1 LP1       0.075200
     83 HN4         -0.8030    -3.3360     6.0060 hn         1 LP1       0.317500
     84 H5          -1.1300    -2.1620     4.0910 h1         1 LP1       0.061700
     85 H61         -1.2310     0.4120     5.7290 hc         1 LP1       0.070700
     86 H62         -1.8220     0.2190     4.1130 hc         1 LP1       0.070700
     87 HNJ         -0.2910    -0.0300     2.8130 hn         1 LP1       0.336500
     88 H23          2.6330    -1.7780     2.1820 hc         1 LP1       0.073700
     89 H251         3.5620     0.1380    -0.0050 hc         1 LP1       0.037033
     90 H252         4.4240    -0.1420     1.5290 hc         1 LP1       0.037033
     91 H253         4.1950    -1.4690     0.3770 hc         1 LP1       0.037033
     92 H281         4.1440     4.4300     0.8560 hc         1 LP1       0.054700
     93 H282         2.9060     5.6150     0.4800 hc         1 LP1       0.054700
     94 H29          3.1400     4.0490     3.1060 hc         1 LP1       0.044700
     95 HOY          3.8870     2.1740    -0.7250 ho         1 LP1       0.437000
     96 HN7          2.1370     0.4620    -3.0900 hn         1 LP1       0.330500
     97 H38          1.2350     1.4910    -5.7350 h1         1 LP1       0.091700
     98 H391         3.3050     0.6190    -6.8490 hc         1 LP1       0.042200
     99 H392         4.0200     0.2670    -5.2800 hc         1 LP1       0.042200
    100 H401         4.8980     2.4050    -6.2630 hc         1 LP1       0.044033
    101 H402         3.2570     3.0870    -6.2620 hc         1 LP1       0.044033
    102 H403         4.0700     2.7120    -4.7240 hc         1 LP1       0.044033
    103 HN3          0.5700    -0.0890    -7.1470 hn         1 LP1       0.326500
    104 H44          0.0030    -2.7870    -5.9580 h1         1 LP1       0.101700
    105 H451        -2.1650    -0.9190    -7.0070 hc         1 LP1       0.064700
    106 H452        -2.4150    -2.4380    -6.2020 hc         1 LP1       0.064700
    107 H47         -1.8950     1.1200    -5.8570 ha         1 LP1       0.104000
    108 H48         -1.9270     2.4300    -3.7610 ha         1 LP1       0.116000
    109 H49         -1.8580     1.2790    -1.5630 ha         1 LP1       0.116000
    110 H52         -1.6730    -3.5180    -4.3960 ha         1 LP1       0.123000
    111 H53         -1.7670    -0.7540    -0.2530 ha         1 LP1       0.114000
    112 H54         -1.6060    -4.5980    -2.1890 ha         1 LP1       0.117000
    113 H55         -1.6580    -3.2310    -0.1090 ha         1 LP1       0.115000
    114 HN1          1.0480    -2.9660    -9.6050 hn         1 LP1       0.314500
    115 HN2          1.7460    -2.1730    -8.2030 hn         1 LP1       0.314500
    116 C24          1.3800    -1.5300     0.4690 c3         1 LP1      -0.088600
@<TRIPOS>BOND
     1     1     2 1   
     2     1    58 1   
     3     1    59 1   
     4     1    60 1   
     5     2    22 2   
     6     2    23 1   
     7     3     4 ar  
     8     3     7 ar  
     9     3    25 1   
    10     4     5 ar  
    11     4    61 1   
    12     5     6 ar  
    13     5    62 1   
    14     6     8 ar  
    15     6    63 1   
    16     7     8 ar  
    17     7     9 ar  
    18     8    10 ar  
    19     9    11 ar  
    20     9    64 1   
    21    10    12 ar  
    22    10    65 1   
    23    11    12 ar  
    24    11    66 1   
    25    12    67 1   
    26    13    14 1   
    27    13    28 1   
    28    13    30 1   
    29    13    68 1   
    30    14    15 1   
    31    14    29 2   
    32    15    16 1   
    33    15    72 1   
    34    16    19 1   
    35    16    32 1   
    36    16    73 1   
    37    17    33 1   
    38    17    74 1   
    39    17    75 1   
    40    17    76 1   
    41    18    33 1   
    42    18    77 1   
    43    18    78 1   
    44    18    79 1   
    45    19    20 1   
    46    19    34 1   
    47    19    80 1   
    48    20    21 1   
    49    20    81 1   
    50    20    82 1   
    51    21    35 2   
    52    21    36 1   
    53    23    24 1   
    54    23    83 1   
    55    24    25 1   
    56    24    26 1   
    57    24    84 1   
    58    25    85 1   
    59    25    86 1   
    60    26    27 2   
    61    26    28 1   
    62    28    87 1   
    63    30    31 1   
    64    30    88 1   
    65    30   116 1   
    66    31    89 1   
    67    31    90 1   
    68    31    91 1   
    69    32    33 1   
    70    32    92 1   
    71    32    93 1   
    72    33    94 1   
    73    34    95 1   
    74    36    37 1   
    75    36    96 1   
    76    37    38 1   
    77    37    40 1   
    78    37    97 1   
    79    38    39 1   
    80    38    98 1   
    81    38    99 1   
    82    39   100 1   
    83    39   101 1   
    84    39   102 1   
    85    40    41 2   
    86    40    42 1   
    87    42    43 1   
    88    42   103 1   
    89    43    44 1   
    90    43    55 1   
    91    43   104 1   
    92    44    45 1   
    93    44   105 1   
    94    44   106 1   
    95    45    46 ar  
    96    45    49 ar  
    97    46    47 ar  
    98    46   107 1   
    99    47    48 ar  
   100    47   108 1   
   101    48    50 ar  
   102    48   109 1   
   103    49    50 ar  
   104    49    51 ar  
   105    50    52 ar  
   106    51    53 ar  
   107    51   110 1   
   108    52    54 ar  
   109    52   111 1   
   110    53    54 ar  
   111    53   112 1   
   112    54   113 1   
   113    55    56 2   
   114    55    57 1   
   115    57   114 1   
   116    57   115 1   
   117    69   116 1   
   118    70   116 1   
   119    71   116 1   
@<TRIPOS>SUBSTRUCTURE
     1 LP1         1 TEMP              0 ****  ****    0 ROOT
