@<TRIPOS>MOLECULE
LP3
   89    88     1     0     0
SMALL
bcc


@<TRIPOS>ATOM
      1 C1          -6.8330     2.1870     0.4140 c3         1 LP3       0.165400
      2 C2          -5.6390     1.2570     0.2450 c3         1 LP3       0.131100
      3 C3          -4.4680     1.8170     1.0340 c3         1 LP3       0.102400
      4 C4         -11.2830     0.4680    -0.9590 c3         1 LP3       0.194400
      5 C5         -11.1830    -0.9740    -1.4050 c3         1 LP3       0.112800
      6 C6         -10.6270    -1.8170     0.8560 c3         1 LP3       0.102100
      7 C7         -10.6090    -3.2910    -1.0670 c3         1 LP3       0.102100
      8 C8          -8.8600    -1.6460    -0.8080 c3         1 LP3       0.102100
      9 C11         -2.1540     1.4120     1.2430 c          1 LP3       0.638100
     10 C12         -1.0360     0.4730     0.8770 c3         1 LP3      -0.135400
     11 C13          0.3280     1.1500     0.8740 c3         1 LP3      -0.070400
     12 C14          1.4670     0.1710     0.6190 c3         1 LP3      -0.074400
     13 C15          2.8210     0.8650     0.5360 c3         1 LP3      -0.075400
     14 C16          3.9940    -0.0990     0.4170 c3         1 LP3      -0.073400
     15 C17          5.3360     0.6110     0.2860 c3         1 LP3      -0.075400
     16 C18          6.5230    -0.3420     0.2210 c3         1 LP3      -0.073400
     17 C19          7.8590     0.3770     0.0720 c3         1 LP3      -0.074400
     18 C20          9.0530    -0.5690     0.0260 c3         1 LP3      -0.074400
     19 C21         10.3850     0.1540    -0.1280 c3         1 LP3      -0.074400
     20 C22         11.5820    -0.7870    -0.1670 c3         1 LP3      -0.074400
     21 C23         12.9130    -0.0610    -0.3180 c3         1 LP3      -0.074400
     22 C24         14.1120    -1.0010    -0.3520 c3         1 LP3      -0.074400
     23 C25         15.4430    -0.2740    -0.4940 c3         1 LP3      -0.074400
     24 C26         16.6420    -1.2140    -0.5250 c3         1 LP3      -0.075400
     25 C27         17.9760    -0.4890    -0.6540 c3         1 LP3      -0.074400
     26 C28         19.1640    -1.4420    -0.6820 c3         1 LP3      -0.088100
     27 N          -10.3150    -1.9070    -0.5970 n4         1 LP3      -0.600800
     28 O2          -5.9360    -0.0720     0.5890 oh         1 LP3      -0.594800
     29 O3          -3.3200     1.0210     0.7400 os         1 LP3      -0.415900
     30 O11         -2.0290     2.3980     1.9270 o          1 LP3      -0.539000
     31 O1P         -9.7360     1.4510     1.3750 o          1 LP3      -0.806500
     32 O2P         -9.6980     3.5310    -0.1800 o          1 LP3      -0.806500
     33 O3P         -7.8870     1.7260    -0.4010 os         1 LP3      -0.573200
     34 O4P        -10.0900     1.1840    -1.1630 os         1 LP3      -0.558200
     35 P           -9.4240     2.0790     0.0480 p5         1 LP3       1.383800
     36 H11         -7.1240     2.2140     1.4720 h1         1 LP3       0.038700
     37 H12         -6.5450     3.2050     0.1320 h1         1 LP3       0.038700
     38 H2          -5.3640     1.2400    -0.8140 h1         1 LP3       0.092700
     39 H31         -4.6750     1.7960     2.1090 h1         1 LP3       0.055200
     40 H32         -4.2910     2.8570     0.7480 h1         1 LP3       0.055200
     41 H41        -11.6340     0.5300     0.0730 h1         1 LP3       0.059200
     42 H42        -12.0760     0.8950    -1.5800 h1         1 LP3       0.059200
     43 H51        -12.1900    -1.3900    -1.3710 hx         1 LP3       0.078200
     44 H52        -10.8320    -1.0400    -2.4350 hx         1 LP3       0.078200
     45 H61        -11.6940    -1.9680     1.0020 hx         1 LP3       0.095367
     46 H62        -10.0750    -2.5960     1.3750 hx         1 LP3       0.095367
     47 H63        -10.3280    -0.8430     1.2390 hx         1 LP3       0.095367
     48 H71        -10.3950    -3.3620    -2.1300 hx         1 LP3       0.095367
     49 H72         -9.9830    -3.9910    -0.5200 hx         1 LP3       0.095367
     50 H73        -11.6560    -3.5190    -0.8860 hx         1 LP3       0.095367
     51 H81         -8.5680    -0.7050    -0.3630 hx         1 LP3       0.095367
     52 H82         -8.2990    -2.4530    -0.3430 hx         1 LP3       0.095367
     53 H83         -8.6540    -1.6320    -1.8750 hx         1 LP3       0.095367
     54 H121        -1.2440     0.0110    -0.0900 hc         1 LP3       0.069700
     55 H122        -1.0480    -0.3420     1.6100 hc         1 LP3       0.069700
     56 H131         0.4950     1.6490     1.8310 hc         1 LP3       0.054700
     57 H132         0.3420     1.9340     0.1110 hc         1 LP3       0.054700
     58 H141         1.2850    -0.3810    -0.3090 hc         1 LP3       0.036700
     59 H142         1.4870    -0.5780     1.4190 hc         1 LP3       0.036700
     60 H151         2.9610     1.4920     1.4240 hc         1 LP3       0.040200
     61 H152         2.8230     1.5500    -0.3190 hc         1 LP3       0.040200
     62 H161         3.8450    -0.7540    -0.4490 hc         1 LP3       0.036700
     63 H162         4.0130    -0.7560     1.2930 hc         1 LP3       0.036700
     64 H171         5.4680     1.2940     1.1330 hc         1 LP3       0.038200
     65 H172         5.3270     1.2410    -0.6100 hc         1 LP3       0.038200
     66 H181         6.3890    -1.0350    -0.6160 hc         1 LP3       0.036700
     67 H182         6.5410    -0.9600     1.1260 hc         1 LP3       0.036700
     68 H191         7.9870     1.0800     0.9030 hc         1 LP3       0.037700
     69 H192         7.8440     0.9860    -0.8390 hc         1 LP3       0.037700
     70 H201         8.9250    -1.2750    -0.8020 hc         1 LP3       0.036700
     71 H202         9.0710    -1.1750     0.9390 hc         1 LP3       0.036700
     72 H211        10.5100     0.8640     0.6980 hc         1 LP3       0.037700
     73 H212        10.3680     0.7570    -1.0430 hc         1 LP3       0.037700
     74 H221        11.4600    -1.4960    -0.9930 hc         1 LP3       0.036700
     75 H222        11.5990    -1.3900     0.7480 hc         1 LP3       0.036700
     76 H231        13.0340     0.6490     0.5080 hc         1 LP3       0.037200
     77 H232        12.8980     0.5410    -1.2330 hc         1 LP3       0.037200
     78 H241        13.9940    -1.7080    -1.1810 hc         1 LP3       0.036700
     79 H242        14.1240    -1.6060     0.5620 hc         1 LP3       0.036700
     80 H251        15.5600     0.4330     0.3350 hc         1 LP3       0.036700
     81 H252        15.4330     0.3310    -1.4080 hc         1 LP3       0.036700
     82 H261        16.5290    -1.9170    -1.3590 hc         1 LP3       0.036700
     83 H262        16.6480    -1.8250     0.3850 hc         1 LP3       0.036700
     84 H271        18.0870     0.2120     0.1790 hc         1 LP3       0.036700
     85 H272        17.9720     0.1200    -1.5630 hc         1 LP3       0.036700
     86 H281        20.1100    -0.9060    -0.7650 hc         1 LP3       0.031367
     87 H282        19.2050    -2.0450     0.2270 hc         1 LP3       0.031367
     88 H283        19.0960    -2.1280    -1.5290 hc         1 LP3       0.031367
     89 HO2         -6.2840    -0.0920     1.4870 ho         1 LP3       0.398000
@<TRIPOS>BOND
     1     1     2 1   
     2     1    33 1   
     3     1    36 1   
     4     1    37 1   
     5     2     3 1   
     6     2    28 1   
     7     2    38 1   
     8     3    29 1   
     9     3    39 1   
    10     3    40 1   
    11     4     5 1   
    12     4    34 1   
    13     4    41 1   
    14     4    42 1   
    15     5    27 1   
    16     5    43 1   
    17     5    44 1   
    18     6    27 1   
    19     6    45 1   
    20     6    46 1   
    21     6    47 1   
    22     7    27 1   
    23     7    48 1   
    24     7    49 1   
    25     7    50 1   
    26     8    27 1   
    27     8    51 1   
    28     8    52 1   
    29     8    53 1   
    30     9    10 1   
    31     9    29 1   
    32     9    30 2   
    33    10    11 1   
    34    10    54 1   
    35    10    55 1   
    36    11    12 1   
    37    11    56 1   
    38    11    57 1   
    39    12    13 1   
    40    12    58 1   
    41    12    59 1   
    42    13    14 1   
    43    13    60 1   
    44    13    61 1   
    45    14    15 1   
    46    14    62 1   
    47    14    63 1   
    48    15    16 1   
    49    15    64 1   
    50    15    65 1   
    51    16    17 1   
    52    16    66 1   
    53    16    67 1   
    54    17    18 1   
    55    17    68 1   
    56    17    69 1   
    57    18    19 1   
    58    18    70 1   
    59    18    71 1   
    60    19    20 1   
    61    19    72 1   
    62    19    73 1   
    63    20    21 1   
    64    20    74 1   
    65    20    75 1   
    66    21    22 1   
    67    21    76 1   
    68    21    77 1   
    69    22    23 1   
    70    22    78 1   
    71    22    79 1   
    72    23    24 1   
    73    23    80 1   
    74    23    81 1   
    75    24    25 1   
    76    24    82 1   
    77    24    83 1   
    78    25    26 1   
    79    25    84 1   
    80    25    85 1   
    81    26    86 1   
    82    26    87 1   
    83    26    88 1   
    84    28    89 1   
    85    31    35 1   
    86    32    35 1   
    87    33    35 1   
    88    34    35 1   
@<TRIPOS>SUBSTRUCTURE
     1 LP3         1 TEMP              0 ****  ****    0 ROOT
