@<TRIPOS>MOLECULE
LP3
   89    88     1     0     0
SMALL
No Charge or Current Charge


@<TRIPOS>ATOM
      1 C1          -7.6880     2.6160     0.7570 c3         1 LP3       0.188600
      2 C2          -6.4890     1.9340     1.4970 c3         1 LP3       0.154300
      3 C3          -5.5720     2.9890     2.1700 c3         1 LP3       0.125600
      4 C4          -6.6400    -0.2650    -1.9640 c3         1 LP3       0.217600
      5 C5          -5.1380    -0.6510    -2.0050 c3         1 LP3       0.084600
      6 C6          -5.4640    -3.1260    -2.4490 c3         1 LP3       0.073900
      7 C7          -3.2010    -2.2360    -1.8690 c3         1 LP3       0.073900
      8 C8          -4.9750    -2.3410    -0.1170 c3         1 LP3       0.073900
      9 C11         -3.4190     3.0990     3.2530 c          1 LP3       0.589100
     10 C12         -2.1700     2.2850     3.5970 c3         1 LP3      -0.135400
     11 C13         -1.0920     2.4220     2.4960 c3         1 LP3      -0.070400
     12 C14          0.1860     1.6100     2.7990 c3         1 LP3      -0.074400
     13 C15          1.2760     1.7760     1.7170 c3         1 LP3      -0.075400
     14 C16          2.5550     0.9670     2.0240 c3         1 LP3      -0.073400
     15 C17          3.6610     1.1580     0.9630 c3         1 LP3      -0.075400
     16 C18          4.9380     0.3470     1.2740 c3         1 LP3      -0.073400
     17 C19          6.0570     0.5500     0.2290 c3         1 LP3      -0.074400
     18 C20          7.3230    -0.2790     0.5380 c3         1 LP3      -0.074400
     19 C21          8.4480    -0.0800    -0.5010 c3         1 LP3      -0.074400
     20 C22          9.6970    -0.9400    -0.2040 c3         1 LP3      -0.074400
     21 C23         10.8230    -0.7540    -1.2440 c3         1 LP3      -0.074400
     22 C24         12.0510    -1.6500    -0.9670 c3         1 LP3      -0.074400
     23 C25         13.1740    -1.4780    -2.0130 c3         1 LP3      -0.074400
     24 C26         14.3850    -2.4030    -1.7540 c3         1 LP3      -0.075400
     25 C27         15.5070    -2.2390    -2.8020 c3         1 LP3      -0.074400
     26 C28         16.7060    -3.1750    -2.5520 c3         1 LP3      -0.088100
     27 N           -4.7060    -2.0850    -1.6090 n4         1 LP3      -0.488000
     28 O2          -6.9700     1.0060     2.4990 oh         1 LP3      -0.657000
     29 O3          -4.3570     2.3410     2.6030 os         1 LP3      -0.439100
     30 O11         -3.5350     4.2950     3.4880 o          1 LP3      -0.490000
     31 O1P         -8.9350    -0.1400     1.1470 o          1 LP3      -0.806500
     32 O2P         -9.5650    -0.1740    -1.2510 o          1 LP3      -0.806500
     33 O3P         -8.2250     1.8180    -0.3260 os         1 LP3      -0.596400
     34 O4P         -7.0890    -0.3210    -0.6060 os         1 LP3      -0.581400
     35 P           -8.5490     0.2400    -0.2420 p5         1 LP3       1.383800
     36 H11         -8.4760     2.8530     1.4840 h1         1 LP3       0.038700
     37 H12         -7.3420     3.5730     0.3440 h1         1 LP3       0.038700
     38 H2          -5.8760     1.4150     0.7470 h1         1 LP3       0.092700
     39 H31         -6.1000     3.4460     3.0180 h1         1 LP3       0.055200
     40 H32         -5.3380     3.7820     1.4470 h1         1 LP3       0.055200
     41 H41         -7.2160    -0.9510    -2.5990 h1         1 LP3       0.059200
     42 H42         -6.7530     0.7500    -2.3700 h1         1 LP3       0.059200
     43 H51         -4.7890    -0.4910    -3.0270 hx         1 LP3       0.078200
     44 H52         -4.5930     0.0410    -1.3600 hx         1 LP3       0.078200
     45 H61         -5.2720    -2.9420    -3.5090 hx         1 LP3       0.095367
     46 H62         -5.1180    -4.1270    -2.1810 hx         1 LP3       0.095367
     47 H63         -6.5350    -3.0430    -2.2480 hx         1 LP3       0.095367
     48 H71         -2.6550    -1.5040    -1.2680 hx         1 LP3       0.095367
     49 H72         -2.8860    -3.2460    -1.5940 hx         1 LP3       0.095367
     50 H73         -3.0000    -2.0630    -2.9290 hx         1 LP3       0.095367
     51 H81         -6.0510    -2.2940     0.0690 hx         1 LP3       0.095367
     52 H82         -4.5990    -3.3310     0.1540 hx         1 LP3       0.095367
     53 H83         -4.4670    -1.5770     0.4760 hx         1 LP3       0.095367
     54 H121        -2.4400     1.2240     3.6670 hc         1 LP3       0.069700
     55 H122        -1.7580     2.6420     4.5480 hc         1 LP3       0.069700
     56 H131        -0.8280     3.4810     2.3810 hc         1 LP3       0.054700
     57 H132        -1.5110     2.0920     1.5360 hc         1 LP3       0.054700
     58 H141        -0.0740     0.5480     2.8900 hc         1 LP3       0.036700
     59 H142         0.5920     1.9260     3.7680 hc         1 LP3       0.036700
     60 H151         1.5350     2.8380     1.6270 hc         1 LP3       0.040200
     61 H152         0.8740     1.4600     0.7460 hc         1 LP3       0.040200
     62 H161         2.3000    -0.0980     2.0920 hc         1 LP3       0.036700
     63 H162         2.9440     1.2660     3.0050 hc         1 LP3       0.036700
     64 H171         3.9180     2.2230     0.8980 hc         1 LP3       0.038200
     65 H172         3.2750     0.8600    -0.0200 hc         1 LP3       0.038200
     66 H181         4.6830    -0.7190     1.3250 hc         1 LP3       0.036700
     67 H182         5.3150     0.6340     2.2640 hc         1 LP3       0.036700
     68 H191         6.3230     1.6140     0.1880 hc         1 LP3       0.037700
     69 H192         5.6780     0.2750    -0.7630 hc         1 LP3       0.037700
     70 H201         7.0530    -1.3430     0.5760 hc         1 LP3       0.036700
     71 H202         7.6980    -0.0080     1.5320 hc         1 LP3       0.036700
     72 H211         8.7350     0.9790    -0.5230 hc         1 LP3       0.037700
     73 H212         8.0670    -0.3310    -1.4990 hc         1 LP3       0.037700
     74 H221         9.4050    -1.9980    -0.1760 hc         1 LP3       0.036700
     75 H222        10.0810    -0.6870     0.7930 hc         1 LP3       0.036700
     76 H231        11.1370     0.2980    -1.2520 hc         1 LP3       0.037200
     77 H232        10.4310    -0.9810    -2.2440 hc         1 LP3       0.037200
     78 H241        11.7330    -2.7000    -0.9510 hc         1 LP3       0.036700
     79 H242        12.4490    -1.4210     0.0300 hc         1 LP3       0.036700
     80 H251        13.5100    -0.4330    -2.0130 hc         1 LP3       0.036700
     81 H252        12.7710    -1.6860    -3.0120 hc         1 LP3       0.036700
     82 H261        14.0460    -3.4470    -1.7510 hc         1 LP3       0.036700
     83 H262        14.7910    -2.1940    -0.7550 hc         1 LP3       0.036700
     84 H271        15.8590    -1.1990    -2.7990 hc         1 LP3       0.036700
     85 H272        15.1030    -2.4380    -3.8030 hc         1 LP3       0.036700
     86 H281        17.4760    -3.0230    -3.3180 hc         1 LP3       0.031367
     87 H282        17.1540    -2.9790    -1.5700 hc         1 LP3       0.031367
     88 H283        16.3920    -4.2260    -2.5870 hc         1 LP3       0.031367
     89 HO2         -7.7260     0.5060     2.0780 ho         1 LP3       0.437000
@<TRIPOS>BOND
     1     1     2 1   
     2     1    33 1   
     3     1    36 1   
     4     1    37 1   
     5     2     3 1   
     6     2    28 1   
     7     2    38 1   
     8     3    29 1   
     9     3    39 1   
    10     3    40 1   
    11     4     5 1   
    12     4    34 1   
    13     4    41 1   
    14     4    42 1   
    15     5    27 1   
    16     5    43 1   
    17     5    44 1   
    18     6    27 1   
    19     6    45 1   
    20     6    46 1   
    21     6    47 1   
    22     7    27 1   
    23     7    48 1   
    24     7    49 1   
    25     7    50 1   
    26     8    27 1   
    27     8    51 1   
    28     8    52 1   
    29     8    53 1   
    30     9    10 1   
    31     9    29 1   
    32     9    30 2   
    33    10    11 1   
    34    10    54 1   
    35    10    55 1   
    36    11    12 1   
    37    11    56 1   
    38    11    57 1   
    39    12    13 1   
    40    12    58 1   
    41    12    59 1   
    42    13    14 1   
    43    13    60 1   
    44    13    61 1   
    45    14    15 1   
    46    14    62 1   
    47    14    63 1   
    48    15    16 1   
    49    15    64 1   
    50    15    65 1   
    51    16    17 1   
    52    16    66 1   
    53    16    67 1   
    54    17    18 1   
    55    17    68 1   
    56    17    69 1   
    57    18    19 1   
    58    18    70 1   
    59    18    71 1   
    60    19    20 1   
    61    19    72 1   
    62    19    73 1   
    63    20    21 1   
    64    20    74 1   
    65    20    75 1   
    66    21    22 1   
    67    21    76 1   
    68    21    77 1   
    69    22    23 1   
    70    22    78 1   
    71    22    79 1   
    72    23    24 1   
    73    23    80 1   
    74    23    81 1   
    75    24    25 1   
    76    24    82 1   
    77    24    83 1   
    78    25    26 1   
    79    25    84 1   
    80    25    85 1   
    81    26    86 1   
    82    26    87 1   
    83    26    88 1   
    84    28    89 1   
    85    31    35 1   
    86    32    35 1   
    87    33    35 1   
    88    34    35 1   
@<TRIPOS>SUBSTRUCTURE
     1 LP3         1 TEMP              0 ****  ****    0 ROOT
