@<TRIPOS>MOLECULE
LP4
  112   112     1     0     0
SMALL
No Charge or Current Charge


@<TRIPOS>ATOM
      1 C1          -3.8190     2.7880    -0.3970 c6         1 LP4       0.393300
      2 O1          -3.7280     4.0820     0.1580 oh         1 LP4      -0.644000
      3 C2          -2.6090     1.8950     0.0170 c6         1 LP4       0.067700
      4 N2          -1.3240     2.4590    -0.4720 ns         1 LP4      -0.484900
      5 C3          -2.8600     0.4390    -0.5030 c6         1 LP4       0.131300
      6 O3          -1.8570    -0.4690    -0.0080 os         1 LP4      -0.429100
      7 C4          -4.2670    -0.0840    -0.0640 c6         1 LP4       0.225300
      8 O4          -4.5840    -1.3600    -0.6720 os         1 LP4      -0.570400
      9 C5          -5.3760     0.9570    -0.4030 c6         1 LP4       0.152300
     10 O5          -5.0290     2.2570     0.1350 os         1 LP4      -0.493000
     11 C6          -6.7750     0.5370     0.1600 c3         1 LP4       0.156600
     12 O6          -7.8180     1.5050    -0.1100 oh         1 LP4      -0.753000
     13 C7          -0.1130     2.3810     0.1770 c          1 LP4       0.618100
     14 O7           0.0140     1.8370     1.2650 o          1 LP4      -0.594100
     15 C8           1.0730     2.9670    -0.5850 c3         1 LP4      -0.200400
     16 C16          1.6000     4.2440     0.0950 c3         1 LP4       0.178300
     17 C17          2.9310     4.7330    -0.5270 c3         1 LP4      -0.113400
     18 C18          3.5560     5.9530     0.1920 c3         1 LP4      -0.070400
     19 C19          4.9060     6.3860    -0.4200 c3         1 LP4      -0.076400
     20 C20          5.5340     7.6010     0.2960 c3         1 LP4      -0.073400
     21 C21          6.8840     8.0330    -0.3160 c3         1 LP4      -0.075400
     22 C22          7.5120     9.2490     0.4010 c3         1 LP4      -0.073400
     23 C23          8.8630     9.6800    -0.2120 c3         1 LP4      -0.074400
     24 C24          9.4900    10.8960     0.5050 c3         1 LP4      -0.074400
     25 C25         10.8410    11.3270    -0.1070 c3         1 LP4      -0.076400
     26 C26         11.4690    12.5430     0.6090 c3         1 LP4      -0.075400
     27 C27         12.8170    12.9730    -0.0010 c3         1 LP4      -0.088100
     28 C28         -0.7080    -0.7510    -0.6930 c          1 LP4       0.643100
     29 C29          0.0840    -1.8440     0.0150 c3         1 LP4      -0.159400
     30 C30          0.0170    -3.1850    -0.7400 c3         1 LP4       0.240300
     31 C31          0.5270    -4.3680     0.1220 c3         1 LP4      -0.100400
     32 C32          0.6570    -5.7050    -0.6460 c3         1 LP4      -0.065400
     33 C33          1.2240    -6.8480     0.2250 c3         1 LP4      -0.075400
     34 C34          1.3600    -8.1830    -0.5400 c3         1 LP4      -0.074400
     35 C35          1.9290    -9.3240     0.3310 c3         1 LP4      -0.074400
     36 C36          2.0650   -10.6590    -0.4350 c3         1 LP4      -0.074400
     37 C37          2.6350   -11.8000     0.4360 c3         1 LP4      -0.074400
     38 C38          2.7720   -13.1340    -0.3300 c3         1 LP4      -0.075400
     39 C39          3.3410   -14.2750     0.5410 c3         1 LP4      -0.075400
     40 C40          3.4780   -15.6090    -0.2240 c3         1 LP4      -0.075400
     41 C41          4.0460   -16.7480     0.6440 c3         1 LP4      -0.087100
     42 O42         -0.3510    -0.1990    -1.7260 o          1 LP4      -0.514000
     43 O43         -1.3110    -3.4550    -1.2010 oh         1 LP4      -0.762000
     44 O44          0.6110     5.2700    -0.0320 oh         1 LP4      -0.644000
     45 P45         -4.5230    -2.7140     0.2010 p5         1 LP4       1.292900
     46 O46         -5.1310    -3.8090    -0.6020 o          1 LP4      -0.890833
     47 O47         -3.1130    -3.0670     0.5200 o          1 LP4      -0.890833
     48 O48         -5.3140    -2.5280     1.4480 o          1 LP4      -0.890833
     49 H1          -3.8940     2.8570    -1.4920 h2         1 LP4      -0.004300
     50 HO1         -4.6450     4.2600     0.4520 ho         1 LP4       0.435000
     51 H2          -2.5830     1.8680     1.1160 h1         1 LP4       0.119700
     52 HN2         -1.3210     2.9420    -1.3610 hn         1 LP4       0.293500
     53 H3          -2.8360     0.4390    -1.6030 h1         1 LP4       0.055700
     54 H4          -4.2480    -0.2000     1.0300 h1         1 LP4       0.068700
     55 H5          -5.4600     1.0450    -1.4970 h1         1 LP4       0.031700
     56 H6          -7.0380    -0.4360    -0.2770 h1         1 LP4       0.073200
     57 H6A         -6.6680     0.3820     1.2430 h1         1 LP4       0.073200
     58 HO6         -8.6360     1.1800     0.3350 ho         1 LP4       0.481000
     59 H8           1.8760     2.2200    -0.5820 hc         1 LP4       0.056200
     60 H8A          0.7930     3.1950    -1.6200 hc         1 LP4       0.056200
     61 H16          1.7810     4.0190     1.1580 h1         1 LP4       0.094700
     62 H17          3.6530     3.9080    -0.5000 hc         1 LP4       0.038700
     63 H17A         2.7740     4.9760    -1.5860 hc         1 LP4       0.038700
     64 H18          2.8600     6.8010     0.1530 hc         1 LP4       0.044200
     65 H18A         3.7030     5.7090     1.2520 hc         1 LP4       0.044200
     66 H19          5.6070     5.5430    -0.3790 hc         1 LP4       0.034700
     67 H19A         4.7590     6.6290    -1.4800 hc         1 LP4       0.034700
     68 H20          4.8340     8.4450     0.2550 hc         1 LP4       0.037200
     69 H20A         5.6800     7.3580     1.3560 hc         1 LP4       0.037200
     70 H21          7.5850     7.1890    -0.2750 hc         1 LP4       0.036200
     71 H21A         6.7380     8.2760    -1.3760 hc         1 LP4       0.036200
     72 H22          6.8120    10.0920     0.3590 hc         1 LP4       0.036700
     73 H22A         7.6580     9.0060     1.4600 hc         1 LP4       0.036700
     74 H23          9.5630     8.8360    -0.1700 hc         1 LP4       0.036700
     75 H23A         8.7160     9.9230    -1.2720 hc         1 LP4       0.036700
     76 H24          8.7900    11.7390     0.4630 hc         1 LP4       0.036200
     77 H24A         9.6370    10.6530     1.5650 hc         1 LP4       0.036200
     78 H25         11.5410    10.4830    -0.0660 hc         1 LP4       0.036200
     79 H25A        10.6950    11.5700    -1.1670 hc         1 LP4       0.036200
     80 H26         10.7720    13.3890     0.5680 hc         1 LP4       0.036200
     81 H26A        11.6190    12.3030     1.6690 hc         1 LP4       0.036200
     82 H27         12.6930    13.2540    -1.0540 hc         1 LP4       0.029367
     83 H27A        13.2220    13.8370     0.5390 hc         1 LP4       0.029367
     84 H27B        13.5470    12.1580     0.0570 hc         1 LP4       0.029367
     85 H29          1.1330    -1.5360     0.0830 hc         1 LP4       0.059200
     86 H29A        -0.3230    -1.9890     1.0230 hc         1 LP4       0.059200
     87 H30          0.6790    -3.0980    -1.6130 h1         1 LP4       0.004700
     88 H31          1.5110    -4.1040     0.5290 hc         1 LP4       0.021700
     89 H31A        -0.1410    -4.5070     0.9820 hc         1 LP4       0.021700
     90 H32         -0.3260    -6.0040    -1.0300 hc         1 LP4       0.045700
     91 H32A         1.3090    -5.5580    -1.5160 hc         1 LP4       0.045700
     92 H33          2.2080    -6.5530     0.6100 hc         1 LP4       0.027200
     93 H33A         0.5710    -6.9960     1.0940 hc         1 LP4       0.027200
     94 H34          0.3750    -8.4790    -0.9240 hc         1 LP4       0.035700
     95 H34A         2.0120    -8.0340    -1.4100 hc         1 LP4       0.035700
     96 H35          2.9120    -9.0280     0.7150 hc         1 LP4       0.032700
     97 H35A         1.2760    -9.4730     1.2000 hc         1 LP4       0.032700
     98 H36          1.0810   -10.9560    -0.8200 hc         1 LP4       0.035700
     99 H36A         2.7180   -10.5100    -1.3050 hc         1 LP4       0.035700
    100 H37          3.6190   -11.5030     0.8200 hc         1 LP4       0.035200
    101 H37A         1.9820   -11.9490     1.3050 hc         1 LP4       0.035200
    102 H38          1.7880   -13.4310    -0.7140 hc         1 LP4       0.035200
    103 H38A         3.4240   -12.9850    -1.2000 hc         1 LP4       0.035200
    104 H39          4.3250   -13.9780     0.9260 hc         1 LP4       0.035700
    105 H39A         2.6890   -14.4250     1.4110 hc         1 LP4       0.035700
    106 H40          2.4960   -15.9110    -0.6090 hc         1 LP4       0.035200
    107 H40A         4.1320   -15.4650    -1.0940 hc         1 LP4       0.035200
    108 H41          4.1250   -17.6720     0.0590 hc         1 LP4       0.027367
    109 H41A         5.0460   -16.4910     1.0160 hc         1 LP4       0.027367
    110 H41B         3.3950   -16.9410     1.5050 hc         1 LP4       0.027367
    111 HO43        -1.9650    -3.2890    -0.4310 ho         1 LP4       0.565000
    112 HO44         0.7210     5.6620    -0.9240 ho         1 LP4       0.426000
@<TRIPOS>BOND
     1     1     2 1   
     2     1     3 1   
     3     1    10 1   
     4     1    49 1   
     5     2    50 1   
     6     3     4 1   
     7     3     5 1   
     8     3    51 1   
     9     4    13 1   
    10     4    52 1   
    11     5     6 1   
    12     5     7 1   
    13     5    53 1   
    14     6    28 1   
    15     7     8 1   
    16     7     9 1   
    17     7    54 1   
    18     8    45 1   
    19     9    10 1   
    20     9    11 1   
    21     9    55 1   
    22    11    12 1   
    23    11    56 1   
    24    11    57 1   
    25    12    58 1   
    26    13    14 2   
    27    13    15 1   
    28    15    16 1   
    29    15    59 1   
    30    15    60 1   
    31    16    17 1   
    32    16    44 1   
    33    16    61 1   
    34    17    18 1   
    35    17    62 1   
    36    17    63 1   
    37    18    19 1   
    38    18    64 1   
    39    18    65 1   
    40    19    20 1   
    41    19    66 1   
    42    19    67 1   
    43    20    21 1   
    44    20    68 1   
    45    20    69 1   
    46    21    22 1   
    47    21    70 1   
    48    21    71 1   
    49    22    23 1   
    50    22    72 1   
    51    22    73 1   
    52    23    24 1   
    53    23    74 1   
    54    23    75 1   
    55    24    25 1   
    56    24    76 1   
    57    24    77 1   
    58    25    26 1   
    59    25    78 1   
    60    25    79 1   
    61    26    27 1   
    62    26    80 1   
    63    26    81 1   
    64    27    82 1   
    65    27    83 1   
    66    27    84 1   
    67    28    29 1   
    68    28    42 2   
    69    29    30 1   
    70    29    85 1   
    71    29    86 1   
    72    30    31 1   
    73    30    43 1   
    74    30    87 1   
    75    31    32 1   
    76    31    88 1   
    77    31    89 1   
    78    32    33 1   
    79    32    90 1   
    80    32    91 1   
    81    33    34 1   
    82    33    92 1   
    83    33    93 1   
    84    34    35 1   
    85    34    94 1   
    86    34    95 1   
    87    35    36 1   
    88    35    96 1   
    89    35    97 1   
    90    36    37 1   
    91    36    98 1   
    92    36    99 1   
    93    37    38 1   
    94    37   100 1   
    95    37   101 1   
    96    38    39 1   
    97    38   102 1   
    98    38   103 1   
    99    39    40 1   
   100    39   104 1   
   101    39   105 1   
   102    40    41 1   
   103    40   106 1   
   104    40   107 1   
   105    41   108 1   
   106    41   109 1   
   107    41   110 1   
   108    43   111 1   
   109    44   112 1   
   110    45    46 1   
   111    45    47 1   
   112    45    48 1   
@<TRIPOS>SUBSTRUCTURE
     1 LP4         1 TEMP              0 ****  ****    0 ROOT
