@<TRIPOS>MOLECULE
LP4
  112   112     1     0     0
SMALL
abcg2


@<TRIPOS>ATOM
      1 C1          -4.6960     3.1490    -0.2690 c6         1 LP4       0.393300
      2 O1          -4.5980     4.3190     0.4490 oh         1 LP4      -0.644000
      3 C2          -3.5210     2.2440     0.1030 c6         1 LP4       0.067700
      4 N2          -2.2680     2.8290    -0.2940 ns         1 LP4      -0.484900
      5 C3          -3.7060     0.8900    -0.5740 c6         1 LP4       0.131300
      6 O3          -2.7200     0.0110    -0.0530 os         1 LP4      -0.429100
      7 C4          -5.0810     0.2800    -0.3200 c6         1 LP4       0.225300
      8 O4          -5.2320    -0.8580    -1.1060 os         1 LP4      -0.570400
      9 C5          -6.1430     1.3280    -0.6750 c6         1 LP4       0.152300
     10 O5          -5.9020     2.5110     0.0660 os         1 LP4      -0.493000
     11 C6          -7.5450     0.8600    -0.3600 c3         1 LP4       0.156600
     12 O6          -8.4570     1.8380    -0.8100 oh         1 LP4      -0.753000
     13 C7          -1.1810     2.9340     0.4950 c          1 LP4       0.618100
     14 O7          -1.1840     2.6620     1.6860 o          1 LP4      -0.594100
     15 C8           0.0720     3.3760    -0.2310 c3         1 LP4      -0.200400
     16 C16          0.9510     4.3090     0.5940 c3         1 LP4       0.178300
     17 C17          2.2390     4.6240    -0.1580 c3         1 LP4      -0.113400
     18 C18          3.2220     5.4940     0.6140 c3         1 LP4      -0.070400
     19 C19          4.4980     5.7600    -0.1760 c3         1 LP4      -0.076400
     20 C20          5.5140     6.6110     0.5740 c3         1 LP4      -0.073400
     21 C21          6.7790     6.8740    -0.2340 c3         1 LP4      -0.075400
     22 C22          7.8110     7.7140     0.5070 c3         1 LP4      -0.073400
     23 C23          9.0700     7.9710    -0.3130 c3         1 LP4      -0.074400
     24 C24         10.1120     8.8060     0.4200 c3         1 LP4      -0.074400
     25 C25         11.3670     9.0580    -0.4060 c3         1 LP4      -0.076400
     26 C26         12.4150     9.8920     0.3200 c3         1 LP4      -0.075400
     27 C27         13.6610    10.1340    -0.5200 c3         1 LP4      -0.088100
     28 C28         -2.0320    -0.7890    -0.8640 c          1 LP4       0.643100
     29 C29         -1.2050    -1.7720    -0.0820 c3         1 LP4      -0.159400
     30 C30         -1.0000    -3.0990    -0.8140 c3         1 LP4       0.240300
     31 C31         -0.1510    -4.0260     0.0560 c3         1 LP4      -0.100400
     32 C32          0.2130    -5.3380    -0.6270 c3         1 LP4      -0.065400
     33 C33          1.0670    -6.2450     0.2500 c3         1 LP4      -0.075400
     34 C34          1.5050    -7.5260    -0.4480 c3         1 LP4      -0.074400
     35 C35          2.3620    -8.4270     0.4330 c3         1 LP4      -0.074400
     36 C36          2.9100    -9.6470    -0.2960 c3         1 LP4      -0.074400
     37 C37          3.7510   -10.5550     0.5930 c3         1 LP4      -0.074400
     38 C38          4.4550   -11.6660    -0.1750 c3         1 LP4      -0.075400
     39 C39          5.2650   -12.5990     0.7170 c3         1 LP4      -0.075400
     40 C40          6.0450   -13.6510    -0.0630 c3         1 LP4      -0.075400
     41 C41          6.8400   -14.5890     0.8360 c3         1 LP4      -0.087100
     42 O42         -2.0260    -0.6910    -2.0640 o          1 LP4      -0.514000
     43 O43         -2.2040    -3.6990    -1.1910 oh         1 LP4      -0.762000
     44 O44          0.2430     5.4730     0.9680 oh         1 LP4      -0.644000
     45 P45         -5.4970    -2.3730    -0.3730 p5         1 LP4       1.292900
     46 O46         -5.9600    -3.1920    -1.5610 o          1 LP4      -0.890833
     47 O47         -4.1250    -2.7940     0.1960 o          1 LP4      -0.890833
     48 O48         -6.5180    -2.1180     0.7240 o          1 LP4      -0.890833
     49 H1          -4.6800     3.3370    -1.3580 h2         1 LP4      -0.004300
     50 HO1         -5.1590     4.9880     0.0430 ho         1 LP4       0.435000
     51 H2          -3.5140     2.1190     1.1890 h1         1 LP4       0.119700
     52 HN2         -2.1550     3.0520    -1.2720 hn         1 LP4       0.293500
     53 H3          -3.5740     1.0160    -1.6550 h1         1 LP4       0.055700
     54 H4          -5.1770     0.0610     0.7530 h1         1 LP4       0.068700
     55 H5          -6.0740     1.5420    -1.7550 h1         1 LP4       0.031700
     56 H6          -7.7080    -0.1030    -0.8500 h1         1 LP4       0.073200
     57 H6A         -7.6330     0.6840     0.7210 h1         1 LP4       0.073200
     58 HO6         -9.3450     1.4910    -0.6890 ho         1 LP4       0.481000
     59 H8           0.6360     2.4700    -0.4760 hc         1 LP4       0.056200
     60 H8A         -0.1730     3.8480    -1.1870 hc         1 LP4       0.056200
     61 H16          1.2070     3.8100     1.5330 h1         1 LP4       0.094700
     62 H17          2.7240     3.6780    -0.4190 hc         1 LP4       0.038700
     63 H17A         1.9930     5.1060    -1.1130 hc         1 LP4       0.038700
     64 H18          2.7520     6.4460     0.8770 hc         1 LP4       0.044200
     65 H18A         3.4750     5.0040     1.5610 hc         1 LP4       0.044200
     66 H19          4.9600     4.8060    -0.4520 hc         1 LP4       0.034700
     67 H19A         4.2410     6.2530    -1.1200 hc         1 LP4       0.034700
     68 H20          5.0550     7.5660     0.8540 hc         1 LP4       0.037200
     69 H20A         5.7790     6.1160     1.5150 hc         1 LP4       0.037200
     70 H21          7.2300     5.9170    -0.5210 hc         1 LP4       0.036200
     71 H21A         6.5120     7.3740    -1.1720 hc         1 LP4       0.036200
     72 H22          7.3630     8.6710     0.7950 hc         1 LP4       0.036700
     73 H22A         8.0820     7.2130     1.4430 hc         1 LP4       0.036700
     74 H23          9.5140     7.0120    -0.6050 hc         1 LP4       0.036700
     75 H23A         8.7980     8.4730    -1.2480 hc         1 LP4       0.036700
     76 H24          9.6700     9.7650     0.7120 hc         1 LP4       0.036200
     77 H24A        10.3870     8.3030     1.3550 hc         1 LP4       0.036200
     78 H25         11.8080     8.0980    -0.6990 hc         1 LP4       0.036200
     79 H25A        11.0910     9.5590    -1.3410 hc         1 LP4       0.036200
     80 H26         11.9750    10.8510     0.6110 hc         1 LP4       0.036200
     81 H26A        12.6900     9.3910     1.2540 hc         1 LP4       0.036200
     82 H27         13.4160    10.6630    -1.4430 hc         1 LP4       0.029367
     83 H27A        14.4000    10.7310     0.0170 hc         1 LP4       0.029367
     84 H27B        14.1370     9.1910    -0.7990 hc         1 LP4       0.029367
     85 H29         -0.2290    -1.3100     0.1050 hc         1 LP4       0.059200
     86 H29A        -1.6630    -1.9390     0.8940 hc         1 LP4       0.059200
     87 H30         -0.4230    -2.8850    -1.7260 h1         1 LP4       0.004700
     88 H31          0.7700    -3.5050     0.3410 hc         1 LP4       0.021700
     89 H31A        -0.6860    -4.2320     0.9910 hc         1 LP4       0.021700
     90 H32         -0.7000    -5.8640    -0.9200 hc         1 LP4       0.045700
     91 H32A         0.7530    -5.1220    -1.5560 hc         1 LP4       0.045700
     92 H33          1.9570    -5.6970     0.5810 hc         1 LP4       0.027200
     93 H33A         0.5140    -6.4950     1.1620 hc         1 LP4       0.027200
     94 H34          0.6230    -8.0780    -0.7890 hc         1 LP4       0.035700
     95 H34A         2.0660    -7.2670    -1.3530 hc         1 LP4       0.035700
     96 H35          3.2020    -7.8470     0.8320 hc         1 LP4       0.032700
     97 H35A         1.7790    -8.7480     1.3030 hc         1 LP4       0.032700
     98 H36          2.0820   -10.2220    -0.7260 hc         1 LP4       0.035700
     99 H36A         3.5140    -9.3110    -1.1460 hc         1 LP4       0.035700
    100 H37          4.5030    -9.9530     1.1160 hc         1 LP4       0.035200
    101 H37A         3.1170   -10.9900     1.3730 hc         1 LP4       0.035200
    102 H38          3.7170   -12.2510    -0.7370 hc         1 LP4       0.035200
    103 H38A         5.1170   -11.2160    -0.9230 hc         1 LP4       0.035200
    104 H39          5.9640   -12.0090     1.3210 hc         1 LP4       0.035700
    105 H39A         4.5950   -13.0950     1.4280 hc         1 LP4       0.035700
    106 H40          5.3540   -14.2340    -0.6790 hc         1 LP4       0.035200
    107 H40A         6.7230   -13.1500    -0.7610 hc         1 LP4       0.035200
    108 H41          7.4130   -15.3120     0.2550 hc         1 LP4       0.027367
    109 H41A         7.5430   -14.0360     1.4610 hc         1 LP4       0.027367
    110 H41B         6.1800   -15.1490     1.5010 hc         1 LP4       0.027367
    111 HO43        -2.9770    -3.3480    -0.6370 ho         1 LP4       0.565000
    112 HO44         0.0520     5.9790     0.1700 ho         1 LP4       0.426000
@<TRIPOS>BOND
     1     1     2 1   
     2     1     3 1   
     3     1    10 1   
     4     1    49 1   
     5     2    50 1   
     6     3     4 1   
     7     3     5 1   
     8     3    51 1   
     9     4    13 1   
    10     4    52 1   
    11     5     6 1   
    12     5     7 1   
    13     5    53 1   
    14     6    28 1   
    15     7     8 1   
    16     7     9 1   
    17     7    54 1   
    18     8    45 1   
    19     9    10 1   
    20     9    11 1   
    21     9    55 1   
    22    11    12 1   
    23    11    56 1   
    24    11    57 1   
    25    12    58 1   
    26    13    14 2   
    27    13    15 1   
    28    15    16 1   
    29    15    59 1   
    30    15    60 1   
    31    16    17 1   
    32    16    44 1   
    33    16    61 1   
    34    17    18 1   
    35    17    62 1   
    36    17    63 1   
    37    18    19 1   
    38    18    64 1   
    39    18    65 1   
    40    19    20 1   
    41    19    66 1   
    42    19    67 1   
    43    20    21 1   
    44    20    68 1   
    45    20    69 1   
    46    21    22 1   
    47    21    70 1   
    48    21    71 1   
    49    22    23 1   
    50    22    72 1   
    51    22    73 1   
    52    23    24 1   
    53    23    74 1   
    54    23    75 1   
    55    24    25 1   
    56    24    76 1   
    57    24    77 1   
    58    25    26 1   
    59    25    78 1   
    60    25    79 1   
    61    26    27 1   
    62    26    80 1   
    63    26    81 1   
    64    27    82 1   
    65    27    83 1   
    66    27    84 1   
    67    28    29 1   
    68    28    42 2   
    69    29    30 1   
    70    29    85 1   
    71    29    86 1   
    72    30    31 1   
    73    30    43 1   
    74    30    87 1   
    75    31    32 1   
    76    31    88 1   
    77    31    89 1   
    78    32    33 1   
    79    32    90 1   
    80    32    91 1   
    81    33    34 1   
    82    33    92 1   
    83    33    93 1   
    84    34    35 1   
    85    34    94 1   
    86    34    95 1   
    87    35    36 1   
    88    35    96 1   
    89    35    97 1   
    90    36    37 1   
    91    36    98 1   
    92    36    99 1   
    93    37    38 1   
    94    37   100 1   
    95    37   101 1   
    96    38    39 1   
    97    38   102 1   
    98    38   103 1   
    99    39    40 1   
   100    39   104 1   
   101    39   105 1   
   102    40    41 1   
   103    40   106 1   
   104    40   107 1   
   105    41   108 1   
   106    41   109 1   
   107    41   110 1   
   108    43   111 1   
   109    44   112 1   
   110    45    46 1   
   111    45    47 1   
   112    45    48 1   
@<TRIPOS>SUBSTRUCTURE
     1 LP4         1 TEMP              0 ****  ****    0 ROOT
