@<TRIPOS>MOLECULE
LP5
  112   112     1     0     0
SMALL
No Charge or Current Charge


@<TRIPOS>ATOM
      1 O48          0.0300     5.0570     2.3160 o          1 LP5      -0.900500
      2 P45         -1.1500     4.8590     1.4330 p5         1 LP5       1.283900
      3 O46         -2.2910     4.3320     2.2360 o          1 LP5      -0.900500
      4 O47         -1.5260     6.1540     0.8020 o          1 LP5      -0.900500
      5 O1          -0.7710     3.8010     0.2880 os         1 LP5      -0.538400
      6 C1          -0.7460     2.4700     0.7770 c6         1 LP5       0.425300
      7 C2           0.3450     1.5690     0.1410 c6         1 LP5       0.032700
      8 N2           0.1930     1.4840    -1.3330 ns         1 LP5      -0.464900
      9 C7           1.1170     0.9700    -2.2130 c          1 LP5       0.590100
     10 C8           0.7140     1.0270    -3.6840 c3         1 LP5      -0.203400
     11 C16          1.5310     2.0840    -4.4480 c3         1 LP5       0.197300
     12 O44          1.1880     3.3730    -3.9350 oh         1 LP5      -0.674000
     13 C17          1.2610     2.0390    -5.9730 c3         1 LP5      -0.075400
     14 C18          2.1400     3.0020    -6.8090 c3         1 LP5      -0.070400
     15 C19          1.8820     2.8830    -8.3280 c3         1 LP5      -0.075400
     16 C20          2.7480     3.8480    -9.1660 c3         1 LP5      -0.074400
     17 C21          2.4820     3.7360   -10.6830 c3         1 LP5      -0.074400
     18 C22          3.3420     4.7080   -11.5210 c3         1 LP5      -0.074400
     19 C23          3.0690     4.6020   -13.0380 c3         1 LP5      -0.074400
     20 C24          3.9240     5.5770   -13.8760 c3         1 LP5      -0.074400
     21 C25          3.6470     5.4730   -15.3920 c3         1 LP5      -0.075400
     22 C26          4.5000     6.4480   -16.2320 c3         1 LP5      -0.075400
     23 C27          4.2240     6.3440   -17.7440 c3         1 LP5      -0.088100
     24 O7           2.1620     0.4570    -1.8380 o          1 LP5      -0.640100
     25 C3           0.2370     0.1750     0.8690 c6         1 LP5       0.141300
     26 C4          -1.2310    -0.4010     0.8640 c6         1 LP5       0.140300
     27 C5          -2.2790     0.6860     1.2930 c6         1 LP5       0.108300
     28 O5          -2.0420     1.8860     0.5260 os         1 LP5      -0.480000
     29 C6          -2.3510     1.0360     2.8280 c3         1 LP5       0.181600
     30 O6          -3.2180     2.1550     3.1130 oh         1 LP5      -0.802000
     31 O4          -1.5690    -0.8710    -0.4570 oh         1 LP5      -0.741000
     32 O3           0.6960     0.2810     2.2370 os         1 LP5      -0.464100
     33 C28          2.0270     0.4070     2.5450 c          1 LP5       0.625100
     34 O42          2.9200     0.5150     1.7180 o          1 LP5      -0.484000
     35 C29          2.2460     0.5870     4.0420 c3         1 LP5      -0.147400
     36 C30          2.9410    -0.6440     4.6600 c3         1 LP5       0.180300
     37 O43          2.1340    -1.7990     4.4250 oh         1 LP5      -0.666000
     38 C31          3.1760    -0.5240     6.1900 c3         1 LP5      -0.102400
     39 C32          4.0730     0.6530     6.6530 c3         1 LP5      -0.068400
     40 C33          5.5120     0.6240     6.0860 c3         1 LP5      -0.081400
     41 C34          6.3960     1.7650     6.6350 c3         1 LP5      -0.053400
     42 C35          7.8350     1.7390     6.0750 c3         1 LP5      -0.086400
     43 C36          8.7160     2.8860     6.6190 c3         1 LP5      -0.059400
     44 C37         10.1570     2.8570     6.0650 c3         1 LP5      -0.087400
     45 C38         11.0350     4.0080     6.6050 c3         1 LP5      -0.063400
     46 C39         12.4780     3.9770     6.0550 c3         1 LP5      -0.077400
     47 C40         13.3540     5.1300     6.5920 c3         1 LP5      -0.074400
     48 C41         14.7940     5.0980     6.0460 c3         1 LP5      -0.085100
     49 H1          -0.5330     2.4920     1.8560 h2         1 LP5       0.051700
     50 H2           1.3260     2.0170     0.3520 h1         1 LP5       0.106700
     51 HN2         -0.5980     1.9600    -1.7510 hn         1 LP5       0.334500
     52 H81          0.9150     0.0470    -4.1310 hc         1 LP5       0.061200
     53 H82         -0.3520     1.2670    -3.7810 hc         1 LP5       0.061200
     54 H16          2.5990     1.8830    -4.2820 h1         1 LP5       0.030700
     55 HO44         1.7920     4.0200    -4.3600 ho         1 LP5       0.473000
     56 H171         0.2020     2.2600    -6.1610 hc         1 LP5       0.040700
     57 H172         1.4340     1.0160    -6.3290 hc         1 LP5       0.040700
     58 H181         3.1980     2.7920    -6.6060 hc         1 LP5       0.043700
     59 H182         1.9510     4.0370    -6.5000 hc         1 LP5       0.043700
     60 H191         2.0790     1.8520    -8.6480 hc         1 LP5       0.034700
     61 H192         0.8220     3.0840    -8.5300 hc         1 LP5       0.034700
     62 H201         3.8090     3.6440    -8.9700 hc         1 LP5       0.036200
     63 H202         2.5550     4.8790    -8.8420 hc         1 LP5       0.036200
     64 H211         2.6800     2.7070   -11.0090 hc         1 LP5       0.035700
     65 H212         1.4210     3.9360   -10.8780 hc         1 LP5       0.035700
     66 H221         4.4030     4.5060   -11.3310 hc         1 LP5       0.036200
     67 H222         3.1470     5.7360   -11.1920 hc         1 LP5       0.036200
     68 H231         2.0060     4.8010   -13.2270 hc         1 LP5       0.036200
     69 H232         3.2660     3.5740   -13.3680 hc         1 LP5       0.036200
     70 H241         4.9860     5.3770   -13.6890 hc         1 LP5       0.035700
     71 H242         3.7280     6.6050   -13.5450 hc         1 LP5       0.035700
     72 H251         3.8440     4.4450   -15.7240 hc         1 LP5       0.036700
     73 H252         2.5850     5.6720   -15.5790 hc         1 LP5       0.036700
     74 H261         5.5640     6.2500   -16.0500 hc         1 LP5       0.035700
     75 H262         4.3050     7.4770   -15.9040 hc         1 LP5       0.035700
     76 H271         3.1730     6.5720   -17.9630 hc         1 LP5       0.028700
     77 H272         4.4430     5.3340   -18.1110 hc         1 LP5       0.028700
     78 H273         4.8510     7.0540   -18.2970 hc         1 LP5       0.028700
     79 H3           0.8870    -0.5520     0.3600 h1         1 LP5       0.061700
     80 H4          -1.2790    -1.2400     1.5740 h1         1 LP5       0.062700
     81 H5          -3.2780     0.3130     1.0220 h1         1 LP5       0.050700
     82 H61         -1.3500     1.2390     3.2230 h1         1 LP5       0.006700
     83 H62         -2.7180     0.1440     3.3530 h1         1 LP5       0.006700
     84 HO6         -2.8030     3.0010     2.6900 ho         1 LP5       0.620000
     85 HO4         -1.8030    -0.0650    -0.9720 ho         1 LP5       0.508000
     86 H291         1.2800     0.7280     4.5390 hc         1 LP5       0.104200
     87 H292         2.8790     1.4670     4.1830 hc         1 LP5       0.104200
     88 H30          3.9160    -0.7730     4.1680 h1         1 LP5       0.062700
     89 HO43         2.5510    -2.5430     4.9110 ho         1 LP5       0.421000
     90 H311         3.6240    -1.4570     6.5540 hc         1 LP5       0.019700
     91 H312         2.2050    -0.4340     6.6940 hc         1 LP5       0.019700
     92 H321         3.5960     1.6070     6.3970 hc         1 LP5       0.032700
     93 H322         4.1290     0.6270     7.7480 hc         1 LP5       0.032700
     94 H331         5.4780     0.7010     4.9920 hc         1 LP5       0.055700
     95 H332         5.9760    -0.3400     6.3270 hc         1 LP5       0.055700
     96 H341         5.9320     2.7290     6.3900 hc         1 LP5       0.025200
     97 H342         6.4350     1.6970     7.7290 hc         1 LP5       0.025200
     98 H351         7.7970     1.8030     4.9800 hc         1 LP5       0.064200
     99 H352         8.3010     0.7770     6.3230 hc         1 LP5       0.064200
    100 H361         8.2510     3.8470     6.3660 hc         1 LP5       0.021200
    101 H362         8.7500     2.8240     7.7140 hc         1 LP5       0.021200
    102 H371        10.6230     1.8970     6.3210 hc         1 LP5       0.061700
    103 H372        10.1230     2.9140     4.9690 hc         1 LP5       0.061700
    104 H381        11.0660     3.9530     7.7010 hc         1 LP5       0.024200
    105 H382        10.5700     4.9670     6.3450 hc         1 LP5       0.024200
    106 H391        12.4470     4.0290     4.9590 hc         1 LP5       0.043200
    107 H392        12.9430     3.0190     6.3170 hc         1 LP5       0.043200
    108 H401        12.8940     6.0900     6.3280 hc         1 LP5       0.029200
    109 H402        13.3880     5.0810     7.6880 hc         1 LP5       0.029200
    110 H411        14.7960     5.1800     4.9520 hc         1 LP5       0.021367
    111 H412        15.2950     4.1640     6.3250 hc         1 LP5       0.021367
    112 H413        15.3750     5.9340     6.4530 hc         1 LP5       0.021367
@<TRIPOS>BOND
     1     1     2 1   
     2     2     3 1   
     3     2     4 1   
     4     2     5 1   
     5     5     6 1   
     6     6     7 1   
     7     6    28 1   
     8     6    49 1   
     9     7     8 1   
    10     7    25 1   
    11     7    50 1   
    12     8     9 1   
    13     8    51 1   
    14     9    10 1   
    15     9    24 2   
    16    10    11 1   
    17    10    52 1   
    18    10    53 1   
    19    11    12 1   
    20    11    13 1   
    21    11    54 1   
    22    12    55 1   
    23    13    14 1   
    24    13    56 1   
    25    13    57 1   
    26    14    15 1   
    27    14    58 1   
    28    14    59 1   
    29    15    16 1   
    30    15    60 1   
    31    15    61 1   
    32    16    17 1   
    33    16    62 1   
    34    16    63 1   
    35    17    18 1   
    36    17    64 1   
    37    17    65 1   
    38    18    19 1   
    39    18    66 1   
    40    18    67 1   
    41    19    20 1   
    42    19    68 1   
    43    19    69 1   
    44    20    21 1   
    45    20    70 1   
    46    20    71 1   
    47    21    22 1   
    48    21    72 1   
    49    21    73 1   
    50    22    23 1   
    51    22    74 1   
    52    22    75 1   
    53    23    76 1   
    54    23    77 1   
    55    23    78 1   
    56    25    26 1   
    57    25    32 1   
    58    25    79 1   
    59    26    27 1   
    60    26    31 1   
    61    26    80 1   
    62    27    28 1   
    63    27    29 1   
    64    27    81 1   
    65    29    30 1   
    66    29    82 1   
    67    29    83 1   
    68    30    84 1   
    69    31    85 1   
    70    32    33 1   
    71    33    34 2   
    72    33    35 1   
    73    35    36 1   
    74    35    86 1   
    75    35    87 1   
    76    36    37 1   
    77    36    38 1   
    78    36    88 1   
    79    37    89 1   
    80    38    39 1   
    81    38    90 1   
    82    38    91 1   
    83    39    40 1   
    84    39    92 1   
    85    39    93 1   
    86    40    41 1   
    87    40    94 1   
    88    40    95 1   
    89    41    42 1   
    90    41    96 1   
    91    41    97 1   
    92    42    43 1   
    93    42    98 1   
    94    42    99 1   
    95    43    44 1   
    96    43   100 1   
    97    43   101 1   
    98    44    45 1   
    99    44   102 1   
   100    44   103 1   
   101    45    46 1   
   102    45   104 1   
   103    45   105 1   
   104    46    47 1   
   105    46   106 1   
   106    46   107 1   
   107    47    48 1   
   108    47   108 1   
   109    47   109 1   
   110    48   110 1   
   111    48   111 1   
   112    48   112 1   
@<TRIPOS>SUBSTRUCTURE
     1 LP5         1 TEMP              0 ****  ****    0 ROOT
