@<TRIPOS>MOLECULE
LP5
  112   112     1     0     0
SMALL
bcc


@<TRIPOS>ATOM
      1 O48          4.2370     1.8030     3.3690 o          1 LP5      -0.900500
      2 P45          3.9140     3.2720     3.1580 p5         1 LP5       1.283900
      3 O46          2.8810     3.8380     4.1490 o          1 LP5      -0.900500
      4 O47          5.0610     4.2070     2.8360 o          1 LP5      -0.900500
      5 O1           3.0450     3.2590     1.6460 os         1 LP5      -0.515200
      6 C1           1.9240     2.4880     1.7350 c6         1 LP5       0.378900
      7 C2           1.7480     1.4950     0.5930 c6         1 LP5       0.032700
      8 N2           1.5070     2.2000    -0.6490 ns         1 LP5      -0.531900
      9 C7           1.6730     1.6440    -1.8650 c          1 LP5       0.657100
     10 C8           1.4940     2.5990    -3.0260 c3         1 LP5      -0.203400
     11 C16          2.0550     2.0640    -4.3410 c3         1 LP5       0.174100
     12 O44          3.4200     1.7230    -4.2160 oh         1 LP5      -0.611800
     13 C17          1.9270     3.1150    -5.4340 c3         1 LP5      -0.075400
     14 C18          2.3760     2.6400    -6.8100 c3         1 LP5      -0.070400
     15 C19          2.2440     3.7210    -7.8750 c3         1 LP5      -0.075400
     16 C20          2.7060     3.2640    -9.2530 c3         1 LP5      -0.074400
     17 C21          2.6050     4.3510   -10.3160 c3         1 LP5      -0.074400
     18 C22          3.0790     3.8940   -11.6900 c3         1 LP5      -0.074400
     19 C23          2.9970     4.9840   -12.7520 c3         1 LP5      -0.074400
     20 C24          3.4800     4.5260   -14.1220 c3         1 LP5      -0.074400
     21 C25          3.4120     5.6170   -15.1830 c3         1 LP5      -0.075400
     22 C26          3.9070     5.1610   -16.5500 c3         1 LP5      -0.075400
     23 C27          3.8430     6.2600   -17.6020 c3         1 LP5      -0.088100
     24 O7           1.9230     0.4560    -2.0160 o          1 LP5      -0.640100
     25 C3           0.5570     0.5900     0.9860 c6         1 LP5       0.118100
     26 C4          -0.6860     1.4200     1.3680 c6         1 LP5       0.117100
     27 C5          -0.3550     2.6500     2.2420 c6         1 LP5       0.085100
     28 O5           0.7840     3.3280     1.7460 os         1 LP5      -0.433600
     29 C6          -0.2170     2.3590     3.7490 c3         1 LP5       0.158400
     30 O6           0.2640     3.4680     4.4510 oh         1 LP5      -0.679800
     31 O4          -1.3870     1.7890     0.2010 oh         1 LP5      -0.618800
     32 O3           0.9010    -0.1550     2.1600 os         1 LP5      -0.440900
     33 C28          1.8850    -1.0610     2.1340 c          1 LP5       0.674100
     34 O42          2.3620    -1.4920     1.1190 o          1 LP5      -0.533000
     35 C29          2.3220    -1.3860     3.5370 c3         1 LP5      -0.147400
     36 C30          3.3290    -2.5150     3.6370 c3         1 LP5       0.157100
     37 O43          2.7330    -3.6690     3.0770 oh         1 LP5      -0.603800
     38 C31          3.7420    -2.7810     5.0870 c3         1 LP5      -0.102400
     39 C32          4.2300    -1.5730     5.8810 c3         1 LP5      -0.068400
     40 C33          5.4080    -0.8200     5.2710 c3         1 LP5      -0.081400
     41 C34          5.7930     0.4030     6.0950 c3         1 LP5      -0.053400
     42 C35          6.8010     1.3090     5.4030 c3         1 LP5      -0.086400
     43 C36          7.1070     2.5770     6.1900 c3         1 LP5      -0.059400
     44 C37          7.9200     3.5880     5.3910 c3         1 LP5      -0.087400
     45 C38          8.2620     4.8470     6.1770 c3         1 LP5      -0.063400
     46 C39          9.1010     5.8420     5.3850 c3         1 LP5      -0.077400
     47 C40          9.4300     7.1120     6.1600 c3         1 LP5      -0.074400
     48 C41         10.2820     8.0870     5.3600 c3         1 LP5      -0.085100
     49 H1           1.9480     1.8880     2.6490 h2         1 LP5       0.051700
     50 H2           2.6500     0.8890     0.4910 h1         1 LP5       0.106700
     51 HN2          1.4190     3.2050    -0.6020 hn         1 LP5       0.334500
     52 H81          0.4220     2.7910    -3.1430 hc         1 LP5       0.061200
     53 H82          1.9530     3.5630    -2.7860 hc         1 LP5       0.061200
     54 H16          1.4660     1.1860    -4.6400 h1         1 LP5       0.030700
     55 HO44         3.4740     0.9420    -3.6560 ho         1 LP5       0.434000
     56 H171         2.4980     4.0040    -5.1410 hc         1 LP5       0.040700
     57 H172         0.8810     3.4300    -5.4830 hc         1 LP5       0.040700
     58 H181         1.7850     1.7650    -7.1050 hc         1 LP5       0.043700
     59 H182         3.4150     2.3050    -6.7650 hc         1 LP5       0.043700
     60 H191         1.2020     4.0540    -7.9320 hc         1 LP5       0.034700
     61 H192         2.8250     4.6000    -7.5710 hc         1 LP5       0.034700
     62 H201         2.1160     2.3950    -9.5650 hc         1 LP5       0.036200
     63 H202         3.7430     2.9170    -9.1890 hc         1 LP5       0.036200
     64 H211         1.5680     4.6980   -10.3850 hc         1 LP5       0.035700
     65 H212         3.1930     5.2210   -10.0000 hc         1 LP5       0.035700
     66 H221         2.4860     3.0300   -12.0090 hc         1 LP5       0.036200
     67 H222         4.1120     3.5390   -11.6160 hc         1 LP5       0.036200
     68 H231         3.5870     5.8490   -12.4290 hc         1 LP5       0.036200
     69 H232         1.9620     5.3370   -12.8310 hc         1 LP5       0.036200
     70 H241         2.8860     3.6640   -14.4480 hc         1 LP5       0.035700
     71 H242         4.5120     4.1660   -14.0400 hc         1 LP5       0.035700
     72 H251         2.3790     5.9730   -15.2720 hc         1 LP5       0.036700
     73 H252         4.0010     6.4800   -14.8540 hc         1 LP5       0.036700
     74 H261         3.3160     4.3010   -16.8810 hc         1 LP5       0.035700
     75 H262         4.9370     4.8030   -16.4600 hc         1 LP5       0.035700
     76 H271         4.4390     7.1250   -17.3050 hc         1 LP5       0.028700
     77 H272         2.8180     6.6060   -17.7520 hc         1 LP5       0.028700
     78 H273         4.2190     5.9160   -18.5660 hc         1 LP5       0.028700
     79 H3           0.3020    -0.0940     0.1730 h1         1 LP5       0.061700
     80 H4          -1.3690     0.7700     1.9260 h1         1 LP5       0.062700
     81 H5          -1.1850     3.3530     2.1250 h1         1 LP5       0.050700
     82 H61          0.3900     1.4660     3.9370 h1         1 LP5       0.006700
     83 H62         -1.2190     2.1180     4.1200 h1         1 LP5       0.006700
     84 HO6          1.2400     3.5760     4.2800 ho         1 LP5       0.521000
     85 HO4         -0.8370     2.3890    -0.3140 ho         1 LP5       0.409000
     86 H291         1.4460    -1.5860     4.1620 hc         1 LP5       0.104200
     87 H292         2.7700    -0.4620     3.9200 hc         1 LP5       0.104200
     88 H30          4.2210    -2.2300     3.0620 h1         1 LP5       0.062700
     89 HO43         3.3650    -4.3920     3.1400 ho         1 LP5       0.382000
     90 H311         4.5260    -3.5470     5.0780 hc         1 LP5       0.019700
     91 H312         2.8850    -3.2220     5.6070 hc         1 LP5       0.019700
     92 H321         3.4020    -0.8710     6.0230 hc         1 LP5       0.032700
     93 H322         4.5000    -1.9130     6.8850 hc         1 LP5       0.032700
     94 H331         5.1480    -0.4740     4.2680 hc         1 LP5       0.055700
     95 H332         6.2630    -1.4960     5.1630 hc         1 LP5       0.055700
     96 H341         4.8860     0.9900     6.2730 hc         1 LP5       0.025200
     97 H342         6.1640     0.0940     7.0790 hc         1 LP5       0.025200
     98 H351         6.3700     1.5940     4.4410 hc         1 LP5       0.064200
     99 H352         7.7310     0.7650     5.2030 hc         1 LP5       0.064200
    100 H361         6.1620     3.0450     6.4900 hc         1 LP5       0.021200
    101 H362         7.6310     2.3280     7.1200 hc         1 LP5       0.021200
    102 H371         8.8460     3.1180     5.0400 hc         1 LP5       0.061700
    103 H372         7.3490     3.8580     4.4950 hc         1 LP5       0.061700
    104 H381         8.7980     4.5720     7.0930 hc         1 LP5       0.024200
    105 H382         7.3360     5.3320     6.5050 hc         1 LP5       0.024200
    106 H391         8.5730     6.1090     4.4620 hc         1 LP5       0.043200
    107 H392        10.0330     5.3590     5.0690 hc         1 LP5       0.043200
    108 H401         8.5000     7.5990     6.4670 hc         1 LP5       0.029200
    109 H402         9.9500     6.8450     7.0860 hc         1 LP5       0.029200
    110 H411         9.7790     8.3810     4.4370 hc         1 LP5       0.021367
    111 H412        11.2380     7.6380     5.0830 hc         1 LP5       0.021367
    112 H413        10.4940     8.9960     5.9240 hc         1 LP5       0.021367
@<TRIPOS>BOND
     1     1     2 1   
     2     2     3 1   
     3     2     4 1   
     4     2     5 1   
     5     5     6 1   
     6     6     7 1   
     7     6    28 1   
     8     6    49 1   
     9     7     8 1   
    10     7    25 1   
    11     7    50 1   
    12     8     9 1   
    13     8    51 1   
    14     9    10 1   
    15     9    24 2   
    16    10    11 1   
    17    10    52 1   
    18    10    53 1   
    19    11    12 1   
    20    11    13 1   
    21    11    54 1   
    22    12    55 1   
    23    13    14 1   
    24    13    56 1   
    25    13    57 1   
    26    14    15 1   
    27    14    58 1   
    28    14    59 1   
    29    15    16 1   
    30    15    60 1   
    31    15    61 1   
    32    16    17 1   
    33    16    62 1   
    34    16    63 1   
    35    17    18 1   
    36    17    64 1   
    37    17    65 1   
    38    18    19 1   
    39    18    66 1   
    40    18    67 1   
    41    19    20 1   
    42    19    68 1   
    43    19    69 1   
    44    20    21 1   
    45    20    70 1   
    46    20    71 1   
    47    21    22 1   
    48    21    72 1   
    49    21    73 1   
    50    22    23 1   
    51    22    74 1   
    52    22    75 1   
    53    23    76 1   
    54    23    77 1   
    55    23    78 1   
    56    25    26 1   
    57    25    32 1   
    58    25    79 1   
    59    26    27 1   
    60    26    31 1   
    61    26    80 1   
    62    27    28 1   
    63    27    29 1   
    64    27    81 1   
    65    29    30 1   
    66    29    82 1   
    67    29    83 1   
    68    30    84 1   
    69    31    85 1   
    70    32    33 1   
    71    33    34 2   
    72    33    35 1   
    73    35    36 1   
    74    35    86 1   
    75    35    87 1   
    76    36    37 1   
    77    36    38 1   
    78    36    88 1   
    79    37    89 1   
    80    38    39 1   
    81    38    90 1   
    82    38    91 1   
    83    39    40 1   
    84    39    92 1   
    85    39    93 1   
    86    40    41 1   
    87    40    94 1   
    88    40    95 1   
    89    41    42 1   
    90    41    96 1   
    91    41    97 1   
    92    42    43 1   
    93    42    98 1   
    94    42    99 1   
    95    43    44 1   
    96    43   100 1   
    97    43   101 1   
    98    44    45 1   
    99    44   102 1   
   100    44   103 1   
   101    45    46 1   
   102    45   104 1   
   103    45   105 1   
   104    46    47 1   
   105    46   106 1   
   106    46   107 1   
   107    47    48 1   
   108    47   108 1   
   109    47   109 1   
   110    48   110 1   
   111    48   111 1   
   112    48   112 1   
@<TRIPOS>SUBSTRUCTURE
     1 LP5         1 TEMP              0 ****  ****    0 ROOT
