@<TRIPOS>MOLECULE
LP6
   36    36     1     0     0
SMALL
No Charge or Current Charge


@<TRIPOS>ATOM
      1 N           32.1280     0.5580    55.5140 n8         1 LP6      -1.001200
      2 CA          31.3410     1.8450    55.5700 c3         1 LP6       0.011500
      3 CB          31.1100     2.2970    57.0390 c3         1 LP6      -0.051400
      4 CG          30.2300     1.3330    57.8780 c3         1 LP6      -0.072400
      5 CD          30.0180     1.7740    59.3470 c3         1 LP6      -0.108400
      6 CE          29.1950     3.0820    59.5050 c3         1 LP6       0.169800
      7 NZ          28.8990     3.4950    60.9030 n3         1 LP6      -0.739600
      8 CM          30.1110     3.8390    61.7000 c6         1 LP6       0.177800
      9 C           31.9170     3.0480    54.7120 c          1 LP6       0.692000
     10 C13         29.7320     4.4580    63.0690 c6         1 LP6      -0.076900
     11 O           33.1030     3.3320    54.8290 o          1 LP6      -0.735000
     12 CCA         28.7930     3.5200    63.8630 c6         1 LP6      -0.072400
     13 CCC         27.5650     3.1410    63.0030 c6         1 LP6      -0.076900
     14 CCD         28.0010     2.5560    61.6360 c6         1 LP6       0.177800
     15 OXT         31.1850     3.5710    53.8820 o          1 LP6      -0.735000
     16 HN1         32.2160     0.2630    54.5340 hn         1 LP6       0.381000
     17 HN2         33.0980     0.7640    55.7820 hn         1 LP6       0.381000
     18 HA          30.3510     1.6210    55.1470 h1         1 LP6       0.034700
     19 HB1C        32.0790     2.4360    57.5350 hc         1 LP6       0.037200
     20 HB2C        30.6290     3.2820    57.0150 hc         1 LP6       0.037200
     21 HG1C        29.2530     1.2180    57.3920 hc         1 LP6       0.037200
     22 HG2C        30.6930     0.3390    57.8860 hc         1 LP6       0.037200
     23 HD1C        29.5060     0.9580    59.8690 hc         1 LP6       0.025700
     24 HD2C        30.9980     1.8890    59.8250 hc         1 LP6       0.025700
     25 HE1C        29.7370     3.8950    59.0040 h1         1 LP6       0.056700
     26 HE2C        28.2500     2.9570    58.9580 h1         1 LP6       0.056700
     27 HM1C        30.7220     2.9420    61.8770 h1         1 LP6       0.029200
     28 HM2C        30.7380     4.5570    61.1500 h1         1 LP6       0.029200
     29 HCD1        27.1010     2.3440    61.0400 h1         1 LP6       0.029200
     30 HCD2        28.5080     1.5970    61.8120 h1         1 LP6       0.029200
     31 H131        30.6410     4.6590    63.6510 hc         1 LP6       0.038450
     32 H132        29.2410     5.4270    62.9100 hc         1 LP6       0.038450
     33 HCA1        29.3360     2.6100    64.1540 hc         1 LP6       0.029700
     34 HCA2        28.4690     4.0070    64.7930 hc         1 LP6       0.029700
     35 HCC1        26.9420     2.4120    63.5380 hc         1 LP6       0.038450
     36 HCC2        26.9390     4.0290    62.8380 hc         1 LP6       0.038450
@<TRIPOS>BOND
     1     1     2 1   
     2     1    16 1   
     3     1    17 1   
     4     2     3 1   
     5     2     9 1   
     6     2    18 1   
     7     3     4 1   
     8     3    19 1   
     9     3    20 1   
    10     4     5 1   
    11     4    21 1   
    12     4    22 1   
    13     5     6 1   
    14     5    23 1   
    15     5    24 1   
    16     6     7 1   
    17     6    25 1   
    18     6    26 1   
    19     7     8 1   
    20     7    14 1   
    21     8    10 1   
    22     8    27 1   
    23     8    28 1   
    24     9    11 1   
    25     9    15 1   
    26    10    12 1   
    27    10    31 1   
    28    10    32 1   
    29    12    13 1   
    30    12    33 1   
    31    12    34 1   
    32    13    14 1   
    33    13    35 1   
    34    13    36 1   
    35    14    29 1   
    36    14    30 1   
@<TRIPOS>SUBSTRUCTURE
     1 LP6         1 TEMP              0 ****  ****    0 ROOT
