@<TRIPOS>MOLECULE
LP6
   36    36     1     0     0
SMALL
abcg2


@<TRIPOS>ATOM
      1 N           32.0120     0.6260    55.5900 n8         1 LP6      -1.001200
      2 CA          31.3350     1.9160    55.6430 c3         1 LP6       0.011500
      3 CB          31.0680     2.3130    57.0990 c3         1 LP6      -0.051400
      4 CG          30.1720     1.3400    57.8570 c3         1 LP6      -0.072400
      5 CD          29.9680     1.7000    59.3280 c3         1 LP6      -0.108400
      6 CE          29.1310     2.9670    59.5230 c3         1 LP6       0.169800
      7 NZ          28.8840     3.3940    60.8860 n3         1 LP6      -0.739600
      8 CM          30.0750     3.8270    61.5910 c6         1 LP6       0.177800
      9 C           32.0830     3.0760    54.9350 c          1 LP6       0.692000
     10 C13         29.7050     4.5220    62.8940 c6         1 LP6      -0.076900
     11 O           33.2960     2.9110    54.6950 o          1 LP6      -0.735000
     12 CCA         28.8440     3.6120    63.7630 c6         1 LP6      -0.072400
     13 CCC         27.6440     3.1050    62.9720 c6         1 LP6      -0.076900
     14 CCD         28.0970     2.4620    61.6680 c6         1 LP6       0.177800
     15 OXT         31.4060     4.0980    54.6930 o          1 LP6      -0.735000
     16 HN1         32.0040     0.2960    54.6320 hn         1 LP6       0.381000
     17 HN2         32.9930     0.7940    55.7860 hn         1 LP6       0.381000
     18 HA          30.3620     1.7980    55.1530 h1         1 LP6       0.034700
     19 HB1C        32.0270     2.4020    57.6250 hc         1 LP6       0.037200
     20 HB2C        30.6250     3.3120    57.1040 hc         1 LP6       0.037200
     21 HG1C        29.1970     1.2820    57.3580 hc         1 LP6       0.037200
     22 HG2C        30.6040     0.3400    57.7910 hc         1 LP6       0.037200
     23 HD1C        29.4790     0.8620    59.8330 hc         1 LP6       0.025700
     24 HD2C        30.9470     1.8160    59.8060 hc         1 LP6       0.025700
     25 HE1C        29.6080     3.8030    59.0020 h1         1 LP6       0.056700
     26 HE2C        28.1610     2.8190    59.0340 h1         1 LP6       0.056700
     27 HM1C        30.7570     2.9890    61.8180 h1         1 LP6       0.029200
     28 HM2C        30.6290     4.5130    60.9450 h1         1 LP6       0.029200
     29 HCD1        27.2280     2.1570    61.0780 h1         1 LP6       0.029200
     30 HCD2        28.6530     1.5400    61.9090 h1         1 LP6       0.029200
     31 H131        30.6140     4.8150    63.4230 hc         1 LP6       0.038450
     32 H132        29.1560     5.4410    62.6660 hc         1 LP6       0.038450
     33 HCA1        29.4440     2.7560    64.0910 hc         1 LP6       0.029700
     34 HCA2        28.5210     4.1330    64.6660 hc         1 LP6       0.029700
     35 HCC1        27.0740     2.3800    63.5580 hc         1 LP6       0.038450
     36 HCC2        26.9680     3.9360    62.7470 hc         1 LP6       0.038450
@<TRIPOS>BOND
     1     1     2 1   
     2     1    16 1   
     3     1    17 1   
     4     2     3 1   
     5     2     9 1   
     6     2    18 1   
     7     3     4 1   
     8     3    19 1   
     9     3    20 1   
    10     4     5 1   
    11     4    21 1   
    12     4    22 1   
    13     5     6 1   
    14     5    23 1   
    15     5    24 1   
    16     6     7 1   
    17     6    25 1   
    18     6    26 1   
    19     7     8 1   
    20     7    14 1   
    21     8    10 1   
    22     8    27 1   
    23     8    28 1   
    24     9    11 1   
    25     9    15 1   
    26    10    12 1   
    27    10    31 1   
    28    10    32 1   
    29    12    13 1   
    30    12    33 1   
    31    12    34 1   
    32    13    14 1   
    33    13    35 1   
    34    13    36 1   
    35    14    29 1   
    36    14    30 1   
@<TRIPOS>SUBSTRUCTURE
     1 LP6         1 TEMP              0 ****  ****    0 ROOT
