@<TRIPOS>MOLECULE
LP7
   30    31     1     0     0
SMALL
No Charge or Current Charge


@<TRIPOS>ATOM
      1 C           -3.4830     1.2070     1.2820 ca         1 LP7      -0.195000
      2 N           -3.4310    -0.7580    -0.1290 nb         1 LP7      -0.670000
      3 O            0.1710     1.5610    -1.2080 oh         1 LP7      -0.634000
      4 C1          -4.0980     0.1060     0.6670 ca         1 LP7       0.379900
      5 C2          -2.1170     1.4360     1.0680 ca         1 LP7      -0.030000
      6 C3          -1.4190     0.5390     0.2400 ca         1 LP7      -0.242300
      7 C4          -2.1120    -0.5410    -0.3350 ca         1 LP7       0.526900
      8 N5          -1.4160    -1.4750    -1.1740 n          1 LP7      -0.268800
      9 C6          -0.0050    -1.5180    -1.2540 c          1 LP7       0.588000
     10 C7           0.7700    -0.6020    -0.3090 c6         1 LP7      -0.199700
     11 C8           0.0560     0.7350    -0.0550 c6         1 LP7       0.251600
     12 O9          -2.1900    -2.4000    -2.0020 oh         1 LP7      -0.404100
     13 O10          0.5570    -2.2870    -2.0240 o          1 LP7      -0.521000
     14 C11          2.2610    -0.4020    -0.5530 c          1 LP7       0.618100
     15 O12          2.8190    -0.6250    -1.6190 o          1 LP7      -0.460000
     16 O13          2.8990     0.1420     0.5330 os         1 LP7      -0.440100
     17 C14          4.3060     0.4200     0.4260 c3         1 LP7       0.171600
     18 C15          4.7580     1.0150     1.7680 c3         1 LP7      -0.098100
     19 H           -4.0660     1.8710     1.9140 ha         1 LP7       0.132000
     20 H1          -5.1590    -0.0920     0.8170 h4         1 LP7       0.028100
     21 H2          -1.6180     2.2860     1.5320 ha         1 LP7       0.123000
     22 H7           0.6810    -1.0400     0.6930 hc         1 LP7       0.109700
     23 HO9         -2.3640    -1.9160    -2.8410 ho         1 LP7       0.470000
     24 H14          4.8730    -0.4980     0.2220 h1         1 LP7       0.050700
     25 H14A         4.5030     1.1400    -0.3790 h1         1 LP7       0.050700
     26 H15          4.2120     1.9410     1.9840 hc         1 LP7       0.048367
     27 H15A         4.5820     0.3050     2.5850 hc         1 LP7       0.048367
     28 H15B         5.8300     1.2460     1.7380 hc         1 LP7       0.048367
     29 H11         -0.3220     2.3870    -1.0090 ho         1 LP7       0.456000
     30 H12          0.5250     1.2320     0.8100 h1         1 LP7       0.061700
@<TRIPOS>BOND
     1     1     4 ar  
     2     1     5 ar  
     3     1    19 1   
     4     2     4 ar  
     5     2     7 ar  
     6     3    11 1   
     7     3    29 1   
     8     4    20 1   
     9     5     6 ar  
    10     5    21 1   
    11     6     7 ar  
    12     6    11 1   
    13     7     8 1   
    14     8     9 1   
    15     8    12 1   
    16     9    10 1   
    17     9    13 2   
    18    10    11 1   
    19    10    14 1   
    20    10    22 1   
    21    11    30 1   
    22    12    23 1   
    23    14    15 2   
    24    14    16 1   
    25    16    17 1   
    26    17    18 1   
    27    17    24 1   
    28    17    25 1   
    29    18    26 1   
    30    18    27 1   
    31    18    28 1   
@<TRIPOS>SUBSTRUCTURE
     1 LP7         1 TEMP              0 ****  ****    0 ROOT
