@<TRIPOS>MOLECULE
LP7
   30    31     1     0     0
SMALL
bcc


@<TRIPOS>ATOM
      1 C           -3.9460     1.0950     0.9830 ca         1 LP7      -0.278300
      2 N           -3.1320    -1.0460     0.2940 nb         1 LP7      -0.670000
      3 O           -0.3810     1.4840    -1.7500 oh         1 LP7      -0.571800
      4 C1          -4.0980    -0.2620     0.7710 ca         1 LP7       0.445200
      5 C2          -2.7240     1.6760     0.6560 ca         1 LP7      -0.048000
      6 C3          -1.7150     0.8890     0.1430 ca         1 LP7      -0.307600
      7 C4          -1.9840    -0.4770     0.0030 ca         1 LP7       0.592200
      8 N5          -0.9600    -1.2880    -0.4780 n          1 LP7      -0.335800
      9 C6           0.3480    -0.9420    -0.5530 c          1 LP7       0.730500
     10 C7           0.6660     0.4030     0.0730 c6         1 LP7      -0.199700
     11 C8          -0.3910     1.4120    -0.3460 c6         1 LP7       0.228400
     12 O9          -1.3310    -2.5230    -0.9290 oh         1 LP7      -0.365100
     13 O10          1.1610    -1.6940    -1.0560 o          1 LP7      -0.596500
     14 C11          2.0910     0.8180    -0.2350 c          1 LP7       0.667100
     15 O12          2.4010     1.7150    -0.9740 o          1 LP7      -0.509000
     16 O13          2.9440     0.0840     0.4500 os         1 LP7      -0.416900
     17 C14          4.3490     0.3210     0.2550 c3         1 LP7       0.148400
     18 C15          5.1060    -0.6420     1.1360 c3         1 LP7      -0.098100
     19 H           -4.7600     1.6830     1.3840 ha         1 LP7       0.150000
     20 H1          -5.0380    -0.7500     0.9990 h4         1 LP7       0.028100
     21 H2          -2.5630     2.7390     0.7890 ha         1 LP7       0.141000
     22 H7           0.5870     0.2730     1.1600 hc         1 LP7       0.109700
     23 HO9         -0.5030    -2.9090    -1.2620 ho         1 LP7       0.431000
     24 H14          4.5990     0.1690    -0.7960 h1         1 LP7       0.050700
     25 H14A         4.5840     1.3550     0.5140 h1         1 LP7       0.050700
     26 H15          4.8830    -0.4840     2.1910 hc         1 LP7       0.048367
     27 H15A         4.8820    -1.6780     0.8820 hc         1 LP7       0.048367
     28 H15B         6.1750    -0.4870     0.9940 hc         1 LP7       0.048367
     29 H11         -1.0650     2.1000    -2.0310 ho         1 LP7       0.417000
     30 H12         -0.1810     2.3810     0.1220 h1         1 LP7       0.061700
@<TRIPOS>BOND
     1     1     4 ar  
     2     1     5 ar  
     3     1    19 1   
     4     2     4 ar  
     5     2     7 ar  
     6     3    11 1   
     7     3    29 1   
     8     4    20 1   
     9     5     6 ar  
    10     5    21 1   
    11     6     7 ar  
    12     6    11 1   
    13     7     8 1   
    14     8     9 1   
    15     8    12 1   
    16     9    10 1   
    17     9    13 2   
    18    10    11 1   
    19    10    14 1   
    20    10    22 1   
    21    11    30 1   
    22    12    23 1   
    23    14    15 2   
    24    14    16 1   
    25    16    17 1   
    26    17    18 1   
    27    17    24 1   
    28    17    25 1   
    29    18    26 1   
    30    18    27 1   
    31    18    28 1   
@<TRIPOS>SUBSTRUCTURE
     1 LP7         1 TEMP              0 ****  ****    0 ROOT
