@<TRIPOS>MOLECULE
LPA
   25    25     1     0     0
SMALL
No Charge or Current Charge


@<TRIPOS>ATOM
      1 C1           4.7380     0.0660     0.0460 c          1 LPA       0.717000
      2 O1           5.3370    -0.6550     0.8300 o          1 LPA      -0.743000
      3 C2           3.3480     0.5860     0.4540 c3         1 LPA      -0.205400
      4 O2           5.1600     0.3570    -1.0630 o          1 LPA      -0.743000
      5 C3           2.2530    -0.4180     0.0200 c3         1 LPA      -0.051400
      6 C4           0.8250     0.0380     0.4000 c3         1 LPA      -0.083400
      7 C5          -0.2670    -0.9690    -0.0330 c3         1 LPA      -0.067400
      8 C6          -1.7070    -0.5740     0.3740 c5         1 LPA       0.100300
      9 S6          -2.2500     0.9560    -0.5350 ss         1 LPA      -0.259000
     10 C7          -2.7720    -1.6510     0.0250 c5         1 LPA      -0.086400
     11 C8          -4.0960    -1.0350     0.5500 c5         1 LPA       0.058600
     12 S8          -4.3030     0.5900    -0.3240 ss         1 LPA      -0.270000
     13 H2           3.2720     0.6600     1.5460 hc         1 LPA       0.016200
     14 H2A          3.1200     1.5240    -0.0690 hc         1 LPA       0.016200
     15 H3           2.3070    -0.5630    -1.0660 hc         1 LPA       0.038700
     16 H3A          2.4540    -1.3930     0.4820 hc         1 LPA       0.038700
     17 H4           0.7700     0.1800     1.4870 hc         1 LPA       0.033700
     18 H4A          0.6300     1.0130    -0.0610 hc         1 LPA       0.033700
     19 H5          -0.2170    -1.1050    -1.1210 hc         1 LPA       0.048200
     20 H5A         -0.0290    -1.9440     0.4090 hc         1 LPA       0.048200
     21 H6          -1.7160    -0.3680     1.4540 h1         1 LPA       0.079700
     22 H7          -2.8160    -1.8490    -1.0520 hc         1 LPA       0.063700
     23 H7A         -2.5570    -2.6040     0.5200 hc         1 LPA       0.063700
     24 H8          -4.9610    -1.6810     0.3470 h1         1 LPA       0.075700
     25 H8A         -4.0540    -0.8630     1.6350 h1         1 LPA       0.075700
@<TRIPOS>BOND
     1     1     2 1   
     2     1     3 1   
     3     1     4 1   
     4     3     5 1   
     5     3    13 1   
     6     3    14 1   
     7     5     6 1   
     8     5    15 1   
     9     5    16 1   
    10     6     7 1   
    11     6    17 1   
    12     6    18 1   
    13     7     8 1   
    14     7    19 1   
    15     7    20 1   
    16     8     9 1   
    17     8    10 1   
    18     8    21 1   
    19     9    12 1   
    20    10    11 1   
    21    10    22 1   
    22    10    23 1   
    23    11    12 1   
    24    11    24 1   
    25    11    25 1   
@<TRIPOS>SUBSTRUCTURE
     1 LPA         1 TEMP              0 ****  ****    0 ROOT
