@<TRIPOS>MOLECULE
LPA
   25    25     1     0     0
SMALL
abcg2


@<TRIPOS>ATOM
      1 C1           4.7190     0.0970    -0.1070 c          1 LPA       0.717000
      2 O1           5.6720     0.6990     0.4320 o          1 LPA      -0.743000
      3 C2           3.3240     0.3910     0.4720 c3         1 LPA      -0.205400
      4 O2           4.7980    -0.7020    -1.0620 o          1 LPA      -0.743000
      5 C3           2.1720    -0.4100    -0.1110 c3         1 LPA      -0.051400
      6 C4           0.8380    -0.0730     0.5450 c3         1 LPA      -0.083400
      7 C5          -0.3200    -0.8920    -0.0050 c3         1 LPA      -0.067400
      8 C6          -1.6470    -0.6360     0.6910 c5         1 LPA       0.100300
      9 S6          -2.2350     1.1040     0.4460 ss         1 LPA      -0.259000
     10 C7          -2.7460    -1.6060     0.2240 c5         1 LPA      -0.086400
     11 C8          -4.1070    -0.9380     0.1310 c5         1 LPA       0.058600
     12 S8          -3.8390     0.6090    -0.7820 ss         1 LPA      -0.270000
     13 H2           3.3650     0.2390     1.5570 hc         1 LPA       0.016200
     14 H2A          3.1280     1.4630     0.3470 hc         1 LPA       0.016200
     15 H3           2.1010    -0.2320    -1.1880 hc         1 LPA       0.038700
     16 H3A          2.3680    -1.4800     0.0050 hc         1 LPA       0.038700
     17 H4           0.9120    -0.2380     1.6260 hc         1 LPA       0.033700
     18 H4A          0.6300     0.9940     0.4130 hc         1 LPA       0.033700
     19 H5          -0.4420    -0.7110    -1.0780 hc         1 LPA       0.048200
     20 H5A         -0.0900    -1.9580     0.1050 hc         1 LPA       0.048200
     21 H6          -1.5160    -0.7180     1.7730 h1         1 LPA       0.079700
     22 H7          -2.4800    -1.9920    -0.7630 hc         1 LPA       0.063700
     23 H7A         -2.7880    -2.4570     0.9060 hc         1 LPA       0.063700
     24 H8          -4.8200    -1.5420    -0.4310 h1         1 LPA       0.075700
     25 H8A         -4.5280    -0.7130     1.1120 h1         1 LPA       0.075700
@<TRIPOS>BOND
     1     1     2 1   
     2     1     3 1   
     3     1     4 1   
     4     3     5 1   
     5     3    13 1   
     6     3    14 1   
     7     5     6 1   
     8     5    15 1   
     9     5    16 1   
    10     6     7 1   
    11     6    17 1   
    12     6    18 1   
    13     7     8 1   
    14     7    19 1   
    15     7    20 1   
    16     8     9 1   
    17     8    10 1   
    18     8    21 1   
    19     9    12 1   
    20    10    11 1   
    21    10    22 1   
    22    10    23 1   
    23    11    12 1   
    24    11    24 1   
    25    11    25 1   
@<TRIPOS>SUBSTRUCTURE
     1 LPA         1 TEMP              0 ****  ****    0 ROOT
