@<TRIPOS>MOLECULE
LPB
   25    25     1     0     0
SMALL
abcg2


@<TRIPOS>ATOM
      1 O1           4.7710     0.9260    -0.9130 o          1 LPB      -0.742500
      2 O2           5.5920    -0.9310    -0.0020 o          1 LPB      -0.742500
      3 C1           4.6680    -0.1300    -0.2590 c          1 LPB       0.718000
      4 C2           3.2840    -0.5020     0.3000 c3         1 LPB      -0.205400
      5 C3           2.1440     0.4450    -0.0370 c3         1 LPB      -0.051400
      6 C4           0.8150    -0.0130     0.5570 c3         1 LPB      -0.084400
      7 C5          -0.3360     0.9290     0.2300 c3         1 LPB      -0.068400
      8 C6          -1.6550     0.5500     0.8900 c5         1 LPB       0.102300
      9 C7          -2.7940     1.5260     0.5790 c5         1 LPB      -0.087400
     10 C8          -3.5230     1.1230    -0.6920 c5         1 LPB       0.065600
     11 S8          -4.0370    -0.5980    -0.4420 ss         1 LPB      -0.290000
     12 S6          -2.1630    -1.1400     0.3120 ss         1 LPB      -0.258000
     13 H21          3.0370    -1.5130    -0.0450 hc         1 LPB       0.016700
     14 H22          3.3730    -0.5930     1.3890 hc         1 LPB       0.016700
     15 H31          2.3740     1.4500     0.3270 hc         1 LPB       0.038200
     16 H32          2.0420     0.5320    -1.1220 hc         1 LPB       0.038200
     17 H41          0.5880    -1.0200     0.1900 hc         1 LPB       0.035200
     18 H42          0.9120    -0.0980     1.6450 hc         1 LPB       0.035200
     19 H51         -0.0770     1.9360     0.5760 hc         1 LPB       0.046200
     20 H52         -0.4720     0.9950    -0.8540 hc         1 LPB       0.046200
     21 H6          -1.5160     0.4870     1.9710 h1         1 LPB       0.083700
     22 H71         -3.5060     1.5410     1.4050 hc         1 LPB       0.064200
     23 H72         -2.3850     2.5350     0.4800 hc         1 LPB       0.064200
     24 H81         -4.4250     1.7140    -0.8530 h1         1 LPB       0.080200
     25 H82         -2.8900     1.2010    -1.5770 h1         1 LPB       0.080200
@<TRIPOS>BOND
     1     1     3 1   
     2     2     3 1   
     3     3     4 1   
     4     4     5 1   
     5     4    13 1   
     6     4    14 1   
     7     5     6 1   
     8     5    15 1   
     9     5    16 1   
    10     6     7 1   
    11     6    17 1   
    12     6    18 1   
    13     7     8 1   
    14     7    19 1   
    15     7    20 1   
    16     8     9 1   
    17     8    12 1   
    18     8    21 1   
    19     9    10 1   
    20     9    22 1   
    21     9    23 1   
    22    10    11 1   
    23    10    24 1   
    24    10    25 1   
    25    11    12 1   
@<TRIPOS>SUBSTRUCTURE
     1 LPB         1 TEMP              0 ****  ****    0 ROOT
