@<TRIPOS>MOLECULE
LPB
   25    25     1     0     0
SMALL
No Charge or Current Charge


@<TRIPOS>ATOM
      1 O1           5.2930     0.9000     0.1430 o          1 LPB      -0.742500
      2 O2           4.8940    -0.6300    -1.3190 o          1 LPB      -0.742500
      3 C1           4.6290    -0.0320    -0.2870 c          1 LPB       0.718000
      4 C2           3.3580    -0.4350     0.4810 c3         1 LPB      -0.205400
      5 C3           2.1430     0.3750    -0.0340 c3         1 LPB      -0.051400
      6 C4           0.8260     0.0240     0.6960 c3         1 LPB      -0.084400
      7 C5          -0.3860     0.8360     0.1810 c3         1 LPB      -0.068400
      8 C6          -1.7180     0.5480     0.9270 c5         1 LPB       0.102300
      9 C7          -2.8900     1.5120     0.5520 c5         1 LPB      -0.087400
     10 C8          -3.3810     1.0590    -0.8480 c5         1 LPB       0.065600
     11 S8          -3.9560    -0.6760    -0.5780 ss         1 LPB      -0.290000
     12 S6          -2.2850    -1.2010     0.5710 ss         1 LPB      -0.258000
     13 H21          3.1170    -1.4890     0.2970 hc         1 LPB       0.016700
     14 H22          3.4570    -0.1840     1.5450 hc         1 LPB       0.016700
     15 H31          2.3470     1.4460     0.0860 hc         1 LPB       0.038200
     16 H32          2.0180     0.1930    -1.1080 hc         1 LPB       0.038200
     17 H41          0.6280    -1.0480     0.5760 hc         1 LPB       0.035200
     18 H42          0.9510     0.2080     1.7710 hc         1 LPB       0.035200
     19 H51         -0.1480     1.9030     0.2790 hc         1 LPB       0.046200
     20 H52         -0.5020     0.6440    -0.8920 hc         1 LPB       0.046200
     21 H6          -1.5110     0.6310     2.0020 h1         1 LPB       0.083700
     22 H71         -3.7000     1.4490     1.2870 hc         1 LPB       0.064200
     23 H72         -2.5610     2.5580     0.5430 hc         1 LPB       0.064200
     24 H81         -4.2150     1.6750    -1.2100 h1         1 LPB       0.080200
     25 H82         -2.5870     1.0850    -1.6050 h1         1 LPB       0.080200
@<TRIPOS>BOND
     1     1     3 1   
     2     2     3 1   
     3     3     4 1   
     4     4     5 1   
     5     4    13 1   
     6     4    14 1   
     7     5     6 1   
     8     5    15 1   
     9     5    16 1   
    10     6     7 1   
    11     6    17 1   
    12     6    18 1   
    13     7     8 1   
    14     7    19 1   
    15     7    20 1   
    16     8     9 1   
    17     8    12 1   
    18     8    21 1   
    19     9    10 1   
    20     9    22 1   
    21     9    23 1   
    22    10    11 1   
    23    10    24 1   
    24    10    25 1   
    25    11    12 1   
@<TRIPOS>SUBSTRUCTURE
     1 LPB         1 TEMP              0 ****  ****    0 ROOT
