@<TRIPOS>MOLECULE
LPD
   18    18     1     0     0
SMALL
No Charge or Current Charge


@<TRIPOS>ATOM
      1 O           46.0810    -9.6220    64.5180 o          1 LPD      -0.580100
      2 C           46.3500    -8.6380    63.8420 c          1 LPD       0.612100
      3 N2          47.4920    -8.6400    63.1120 nt         1 LPD      -0.620000
      4 CA          45.4750    -7.3200    63.7000 c5         1 LPD       0.075500
      5 N           44.2520    -7.2170    64.5610 n7         1 LPD      -0.821400
      6 CD          44.7770    -6.9500    65.9260 c5         1 LPD       0.150800
      7 CG          46.1200    -6.1830    65.7260 c5         1 LPD      -0.103400
      8 CB          46.2610    -6.0690    64.1810 c5         1 LPD      -0.108400
      9 HN21        47.7290    -7.8430    62.5410 hn         1 LPD       0.310000
     10 HN22        48.0980    -9.4470    63.1470 hn         1 LPD       0.310000
     11 HA          45.2140    -7.2320    62.6360 h1         1 LPD       0.060700
     12 H           43.7260    -6.3870    64.2590 hn         1 LPD       0.403000
     13 HD3         44.0560    -6.3720    66.5220 h1         1 LPD       0.052700
     14 HD2         44.9580    -7.8950    66.4590 h1         1 LPD       0.052700
     15 HG3         46.1100    -5.1990    66.2090 hc         1 LPD       0.053700
     16 HG2         46.9540    -6.7450    66.1630 hc         1 LPD       0.053700
     17 HB2         47.3060    -6.0450    63.8520 hc         1 LPD       0.049200
     18 HB3         45.7920    -5.1490    63.8120 hc         1 LPD       0.049200
@<TRIPOS>BOND
     1     1     2 2   
     2     2     3 1   
     3     2     4 1   
     4     3     9 1   
     5     3    10 1   
     6     4     5 1   
     7     4     8 1   
     8     4    11 1   
     9     5     6 1   
    10     5    12 1   
    11     6     7 1   
    12     6    13 1   
    13     6    14 1   
    14     7     8 1   
    15     7    15 1   
    16     7    16 1   
    17     8    17 1   
    18     8    18 1   
@<TRIPOS>SUBSTRUCTURE
     1 LPD         1 TEMP              0 ****  ****    0 ROOT
