@<TRIPOS>MOLECULE
LPD
   18    18     1     0     0
SMALL
bcc


@<TRIPOS>ATOM
      1 O           46.3620    -9.3310    64.7780 o          1 LPD      -0.580100
      2 C           46.4550    -8.5410    63.8520 c          1 LPD       0.679100
      3 N2          47.3450    -8.6870    62.8550 nt         1 LPD      -0.687000
      4 CA          45.6000    -7.2830    63.7530 c5         1 LPD       0.075500
      5 N           44.4010    -7.4000    64.5630 n7         1 LPD      -0.766200
      6 CD          44.7130    -6.8820    65.9030 c5         1 LPD       0.150800
      7 CG          46.0950    -6.2000    65.8260 c5         1 LPD      -0.103400
      8 CB          46.3660    -6.0760    64.3280 c5         1 LPD      -0.108400
      9 HN21        47.4150    -8.0250    62.1000 hn         1 LPD       0.310000
     10 HN22        48.0090    -9.4430    62.8680 hn         1 LPD       0.310000
     11 HA          45.3280    -7.1210    62.7070 h1         1 LPD       0.060700
     12 H           43.6870    -6.8220    64.1440 hn         1 LPD       0.347800
     13 HD3         43.9380    -6.1800    66.2150 h1         1 LPD       0.052700
     14 HD2         44.7250    -7.6880    66.6380 h1         1 LPD       0.052700
     15 HG3         46.1060    -5.2330    66.3280 hc         1 LPD       0.053700
     16 HG2         46.8580    -6.8170    66.3020 hc         1 LPD       0.053700
     17 HB2         47.4280    -6.0620    64.0780 hc         1 LPD       0.049200
     18 HB3         45.9230    -5.1620    63.9280 hc         1 LPD       0.049200
@<TRIPOS>BOND
     1     1     2 2   
     2     2     3 1   
     3     2     4 1   
     4     3     9 1   
     5     3    10 1   
     6     4     5 1   
     7     4     8 1   
     8     4    11 1   
     9     5     6 1   
    10     5    12 1   
    11     6     7 1   
    12     6    13 1   
    13     6    14 1   
    14     7     8 1   
    15     7    15 1   
    16     7    16 1   
    17     8    17 1   
    18     8    18 1   
@<TRIPOS>SUBSTRUCTURE
     1 LPD         1 TEMP              0 ****  ****    0 ROOT
