@<TRIPOS>MOLECULE
LPF
   49    49     1     0     0
SMALL
bcc


@<TRIPOS>ATOM
      1 C1           1.8160    -2.2160    -2.5510 c3         1 LPF       0.402000
      2 F11          3.0940    -2.5600    -2.5960 f          1 LPF      -0.154000
      3 F12          1.1070    -3.2830    -2.1910 f          1 LPF      -0.154000
      4 F13          1.4310    -1.8710    -3.7880 f          1 LPF      -0.154000
      5 C2           1.5860    -1.0320    -1.5960 c2         1 LPF       0.167000
      6 O2           2.5220    -0.5310    -1.0440 o          1 LPF      -0.169000
      7 C3           0.1590    -0.5130    -1.4810 c3         1 LPF       0.012000
      8 C4          -0.0090     0.7270    -2.3750 c3         1 LPF      -0.130000
      9 CP1         -1.3970     1.2990    -2.2640 ca         1 LPF      -0.082000
     10 CP2         -1.6240     2.4810    -1.5660 ca         1 LPF      -0.125000
     11 CP3         -2.9100     2.9920    -1.4330 ca         1 LPF      -0.125000
     12 CP4         -3.9850     2.3240    -2.0010 ca         1 LPF      -0.124000
     13 CP5         -3.7670     1.1450    -2.7060 ca         1 LPF      -0.125000
     14 CP6         -2.4830     0.6380    -2.8360 ca         1 LPF      -0.125000
     15 N3          -0.1200    -0.1750    -0.1130 ns         1 LPF      -0.368000
     16 CN1         -0.0170    -1.1110     0.8460 c2         1 LPF       0.313000
     17 ON1          0.3580    -2.2410     0.5810 o          1 LPF      -0.364000
     18 CN2         -0.4830    -0.7250     2.2520 c3         1 LPF       0.060000
     19 NL1          0.3310    -1.4070     3.2260 n7         1 LPF      -0.844000
     20 CL1          1.6700    -1.2820     3.2510 cl         1 LPF       1.114000
     21 OL1          2.2650    -0.5580     2.4660 o          1 LPF      -0.847000
     22 CL2          2.3810    -2.1220     4.2800 cl         1 LPF       0.869000
     23 CA1         -0.6160     0.7790     2.5110 c3         1 LPF      -0.171000
     24 CA2         -1.0080     1.1430     3.9440 c3         1 LPF      -0.090000
     25 CA3         -1.0830     2.6610     4.0780 c3         1 LPF      -0.207500
     26 CA4         -2.3290     0.5040     4.3620 c3         1 LPF      -0.207500
     27 H3          -0.5390    -1.2860    -1.8180 h1         1 LPF       0.122000
     28 H41          0.7320     1.4790    -2.0930 hc         1 LPF       0.109000
     29 H42          0.1990     0.4490    -3.4090 hc         1 LPF       0.109000
     30 HP2         -0.7880     3.0150    -1.1270 ha         1 LPF       0.132500
     31 HP3         -3.0690     3.9130    -0.8860 ha         1 LPF       0.133500
     32 HP4         -4.9870     2.7200    -1.9010 ha         1 LPF       0.133000
     33 HP5         -4.6000     0.6220    -3.1580 ha         1 LPF       0.133500
     34 HP6         -2.3250    -0.2790    -3.3920 ha         1 LPF       0.132500
     35 HN3         -0.3700     0.7720     0.1130 hn         1 LPF       0.248000
     36 HN2         -1.4810    -1.1650     2.3330 h1         1 LPF       0.101000
     37 HL1         -0.1200    -2.0320     3.8720 hn         1 LPF       0.229000
     38 HL21         3.2730    -1.6070     4.6280 ha         1 LPF      -0.219667
     39 HL22         1.7550    -2.3660     5.1360 ha         1 LPF      -0.219667
     40 HL23         2.6960    -3.0600     3.8190 ha         1 LPF      -0.219667
     41 HA11        -1.3930     1.1770     1.8480 hc         1 LPF       0.095000
     42 HA12         0.3180     1.2860     2.2580 hc         1 LPF       0.095000
     43 HA2         -0.2240     0.7830     4.6170 hc         1 LPF       0.084000
     44 HA31        -1.3140     2.9550     5.1020 hc         1 LPF       0.072333
     45 HA32        -0.1390     3.1340     3.8010 hc         1 LPF       0.072333
     46 HA33        -1.8620     3.0720     3.4310 hc         1 LPF       0.072333
     47 HA41        -3.1350     0.7950     3.6830 hc         1 LPF       0.072333
     48 HA42        -2.2820    -0.5860     4.3730 hc         1 LPF       0.072333
     49 HA43        -2.6130     0.8210     5.3660 hc         1 LPF       0.072333
@<TRIPOS>BOND
     1     1     2 1   
     2     1     3 1   
     3     1     4 1   
     4     1     5 1   
     5     5     6 1   
     6     5     7 1   
     7     7     8 1   
     8     7    15 1   
     9     7    27 1   
    10     8     9 1   
    11     8    28 1   
    12     8    29 1   
    13     9    10 1   
    14     9    14 1   
    15    10    11 1   
    16    10    30 1   
    17    11    12 1   
    18    11    31 1   
    19    12    13 1   
    20    12    32 1   
    21    13    14 1   
    22    13    33 1   
    23    14    34 1   
    24    15    16 1   
    25    15    35 1   
    26    16    17 1   
    27    16    18 1   
    28    18    19 1   
    29    18    23 1   
    30    18    36 1   
    31    19    20 1   
    32    19    37 1   
    33    20    21 1   
    34    20    22 1   
    35    22    38 1   
    36    22    39 1   
    37    22    40 1   
    38    23    24 1   
    39    23    41 1   
    40    23    42 1   
    41    24    25 1   
    42    24    26 1   
    43    24    43 1   
    44    25    44 1   
    45    25    45 1   
    46    25    46 1   
    47    26    47 1   
    48    26    48 1   
    49    26    49 1   
@<TRIPOS>SUBSTRUCTURE
     1 LPF         1 TEMP              0 ****  ****    0 ROOT
