@<TRIPOS>MOLECULE
LPF
   49    49     1     0     0
SMALL
No Charge or Current Charge


@<TRIPOS>ATOM
      1 C1           1.5920    -1.2450    -4.3450 c3         1 LPF       0.402000
      2 F11          2.8170    -1.4650    -4.8790 f          1 LPF      -0.154000
      3 F12          1.1760    -2.4210    -3.8170 f          1 LPF      -0.154000
      4 F13          0.7610    -0.9520    -5.3730 f          1 LPF      -0.154000
      5 C2           1.6070    -0.1320    -3.2990 c          1 LPF       0.167000
      6 O2           2.6290     0.4800    -2.9940 o          1 LPF      -0.169000
      7 C3           0.2630     0.1660    -2.6390 c3         1 LPF       0.012000
      8 C4          -0.1940     1.6290    -2.8670 c3         1 LPF      -0.130000
      9 CP1         -1.5670     1.9150    -2.2680 ca         1 LPF      -0.082000
     10 CP2         -1.6960     2.7440    -1.1350 ca         1 LPF      -0.125000
     11 CP3         -2.9620     2.9900    -0.5770 ca         1 LPF      -0.125000
     12 CP4         -4.1090     2.4110    -1.1490 ca         1 LPF      -0.124000
     13 CP5         -3.9860     1.5850    -2.2800 ca         1 LPF      -0.125000
     14 CP6         -2.7190     1.3390    -2.8380 ca         1 LPF      -0.125000
     15 N3           0.3230    -0.1430    -1.2020 ns         1 LPF      -0.368000
     16 CN1         -0.6350    -0.9090    -0.5170 c          1 LPF       0.313000
     17 ON1         -1.4980    -1.5700    -1.0910 o          1 LPF      -0.364000
     18 CN2         -0.4460    -0.9500     1.0110 c3         1 LPF       0.060000
     19 NL1          0.9450    -1.4550     1.4380 n7         1 LPF      -0.844000
     20 Cl1          1.2920    -3.1950     0.6970 cl         1 LPF       1.114000
     21 OL1          2.0100    -1.5810     1.4450 o          1 LPF      -0.847000
     22 Cl2          1.0400    -5.2460    -0.2480 cl         1 LPF       0.869000
     23 CA1         -0.7430     0.4440     1.6480 c3         1 LPF      -0.171000
     24 CA2         -0.8740     0.4920     3.1990 c3         1 LPF      -0.090000
     25 CA3         -1.0240     1.9510     3.6840 c3         1 LPF      -0.207500
     26 CA4         -2.0430    -0.3720     3.7310 c3         1 LPF      -0.207500
     27 H3          -0.4960    -0.4840    -3.0960 h1         1 LPF       0.122000
     28 H41          0.5570     2.3120    -2.4490 hc         1 LPF       0.109000
     29 H42         -0.2140     1.8310    -3.9460 hc         1 LPF       0.109000
     30 HP2         -0.8140     3.1910    -0.6810 ha         1 LPF       0.132500
     31 HP3         -3.0560     3.6290     0.3000 ha         1 LPF       0.133500
     32 HP4         -5.0890     2.6010    -0.7160 ha         1 LPF       0.133000
     33 HP5         -4.8720     1.1340    -2.7230 ha         1 LPF       0.133500
     34 HP6         -2.6330     0.6950    -3.7120 ha         1 LPF       0.132500
     35 HN3          1.0700     0.2630    -0.6440 hn         1 LPF       0.248000
     36 HN2         -1.2170    -1.6410     1.3830 h1         1 LPF       0.101000
     37 HL1          0.8600    -1.6660     2.4370 hn         1 LPF       0.229000
     38 HL21         3.4470    -1.9830    16.3790 ha         1 LPF      -0.219667
     39 HL22         3.4410    -1.9950    16.3850 ha         1 LPF      -0.219667
     40 HL23         3.4470    -1.9830    16.3750 ha         1 LPF      -0.219667
     41 HA11        -1.6740     0.8290     1.2120 hc         1 LPF       0.095000
     42 HA12         0.0430     1.1430     1.3370 hc         1 LPF       0.095000
     43 HA2          0.0560     0.1020     3.6340 hc         1 LPF       0.084000
     44 HA31        -1.0770     1.9970     4.7800 hc         1 LPF       0.072333
     45 HA32        -0.1680     2.5580     3.3650 hc         1 LPF       0.072333
     46 HA33        -1.9360     2.4080     3.2790 hc         1 LPF       0.072333
     47 HA41        -2.9930    -0.0720     3.2730 hc         1 LPF       0.072333
     48 HA42        -1.8790    -1.4350     3.5240 hc         1 LPF       0.072333
     49 HA43        -2.1410    -0.2630     4.8190 hc         1 LPF       0.072333
@<TRIPOS>BOND
     1     1     2 1   
     2     1     3 1   
     3     1     4 1   
     4     1     5 1   
     5     5     6 1   
     6     5     7 1   
     7     7     8 1   
     8     7    15 1   
     9     7    27 1   
    10     8     9 1   
    11     8    28 1   
    12     8    29 1   
    13     9    10 ar  
    14     9    14 ar  
    15    10    11 ar  
    16    10    30 1   
    17    11    12 ar  
    18    11    31 1   
    19    12    13 ar  
    20    12    32 1   
    21    13    14 ar  
    22    13    33 1   
    23    14    34 1   
    24    15    16 1   
    25    15    35 1   
    26    16    17 1   
    27    16    18 1   
    28    18    19 1   
    29    18    23 1   
    30    18    36 1   
    31    19    20 1   
    32    19    37 1   
    33    20    21 1   
    34    20    22 1   
    35    22    38 1   
    36    22    39 1   
    37    22    40 1   
    38    23    24 1   
    39    23    41 1   
    40    23    42 1   
    41    24    25 1   
    42    24    26 1   
    43    24    43 1   
    44    25    44 1   
    45    25    45 1   
    46    25    46 1   
    47    26    47 1   
    48    26    48 1   
    49    26    49 1   
@<TRIPOS>SUBSTRUCTURE
     1 LPF         1 TEMP              0 ****  ****    0 ROOT
