@<TRIPOS>MOLECULE
LPH
   14    13     1     0     0
SMALL
abcg2


@<TRIPOS>ATOM
      1 CD          -3.9970     0.3890    27.2170 c1         1 LPH      -0.359000
      2 CG          -5.1390     0.7210    27.4020 c1         1 LPH      -0.074100
      3 CB          -6.5290     1.1070    27.6100 c3         1 LPH       0.008700
      4 CA          -7.4380     0.6660    26.4550 c3         1 LPH       0.026500
      5 N           -6.9740     1.2480    25.2080 n8         1 LPH      -1.003200
      6 C           -8.9180     1.0440    26.7330 c          1 LPH       0.722000
      7 OXT         -9.3040     0.9400    27.9130 o          1 LPH      -0.729000
      8 O           -9.6030     1.3750    25.7460 o          1 LPH      -0.729000
      9 H1          -2.9850     0.0950    27.0550 ha         1 LPH       0.230000
     10 H2          -6.5850     2.1930    27.7220 hc         1 LPH       0.068200
     11 H3          -6.8860     0.6700    28.5430 hc         1 LPH       0.068200
     12 H4          -7.4150    -0.4370    26.4340 h1         1 LPH      -0.000300
     13 H5          -6.2150     0.6980    24.8270 hn         1 LPH       0.385500
     14 H6          -7.7350     1.2060    24.5440 hn         1 LPH       0.385500
@<TRIPOS>BOND
     1     1     2 3   
     2     1     9 1   
     3     2     3 1   
     4     3     4 1   
     5     3    10 1   
     6     3    11 1   
     7     4     5 1   
     8     4     6 1   
     9     4    12 1   
    10     5    13 1   
    11     5    14 1   
    12     6     7 1   
    13     6     8 1   
@<TRIPOS>SUBSTRUCTURE
     1 LPH         1 TEMP              0 ****  ****    0 ROOT
