@<TRIPOS>MOLECULE
LPH
   14    13     1     0     0
SMALL
No Charge or Current Charge


@<TRIPOS>ATOM
      1 CD          -4.0090     0.1940    27.2140 c1         1 LPH      -0.359000
      2 CG          -5.1460     0.5750    27.3760 c1         1 LPH      -0.074100
      3 CB          -6.5280     1.0290    27.6090 c3         1 LPH       0.008700
      4 CA          -7.4810     0.7880    26.4020 c3         1 LPH       0.026500
      5 N           -7.0100     1.5430    25.1790 n8         1 LPH      -1.003200
      6 C           -9.0040     0.9980    26.8090 c          1 LPH       0.722000
      7 OXT         -9.2870     1.8160    27.6770 o          1 LPH      -0.729000
      8 O           -9.8480     0.3200    26.2370 o          1 LPH      -0.729000
      9 H1          -3.0010    -0.1480    27.0830 ha         1 LPH       0.230000
     10 H2          -6.5160     2.0950    27.8680 hc         1 LPH       0.068200
     11 H3          -6.9170     0.4960    28.4850 hc         1 LPH       0.068200
     12 H4          -7.3900    -0.2760    26.1410 h1         1 LPH      -0.000300
     13 H5          -6.0440     1.2620    24.9680 hn         1 LPH       0.385500
     14 H6          -7.5440     1.2210    24.3610 hn         1 LPH       0.385500
@<TRIPOS>BOND
     1     1     2 3   
     2     1     9 1   
     3     2     3 1   
     4     3     4 1   
     5     3    10 1   
     6     3    11 1   
     7     4     5 1   
     8     4     6 1   
     9     4    12 1   
    10     5    13 1   
    11     5    14 1   
    12     6     7 1   
    13     6     8 1   
@<TRIPOS>SUBSTRUCTURE
     1 LPH         1 TEMP              0 ****  ****    0 ROOT
