@<TRIPOS>MOLECULE
LPK
   24    23     1     0     0
SMALL
bcc


@<TRIPOS>ATOM
      1 C1          -2.7400    -0.7020    -0.7110 c3         1 LPK       0.048400
      2 O1          -3.8720    -1.2030    -0.0720 oh         1 LPK      -0.561800
      3 C2          -1.9380     0.1390     0.2360 c          1 LPK       0.548100
      4 O2          -2.3410     0.4770     1.3230 o          1 LPK      -0.483100
      5 C3          -0.5730     0.6120    -0.2600 c3         1 LPK       0.022100
      6 O3          -0.3900     1.9680     0.0480 oh         1 LPK      -0.574800
      7 C4           0.5090    -0.2740     0.3920 c3         1 LPK       0.075100
      8 O4           0.0750    -1.6100     0.5220 oh         1 LPK      -0.581800
      9 C5           1.8660    -0.2130    -0.3340 c3         1 LPK       0.121100
     10 O5           2.1580     1.0460    -0.8820 oh         1 LPK      -0.565800
     11 C6           2.9650    -0.7010     0.5970 c3         1 LPK       0.107400
     12 O6           4.1550    -0.8550    -0.1380 oh         1 LPK      -0.583800
     13 H1          -2.0870    -1.4860    -1.1190 h1         1 LPK       0.036200
     14 H2          -2.9790    -0.0490    -1.5660 h1         1 LPK       0.036200
     15 H3          -4.3910    -1.6850    -0.7230 ho         1 LPK       0.409000
     16 H4          -0.5280     0.5230    -1.3510 h1         1 LPK       0.093700
     17 H5          -0.5900     2.0960     0.9830 ho         1 LPK       0.420000
     18 H6           0.6310     0.0930     1.4200 h1         1 LPK       0.080700
     19 H7           0.1720    -2.0590    -0.3250 ho         1 LPK       0.405000
     20 H8           1.8080    -0.8920    -1.1960 h1         1 LPK       0.077700
     21 H9           2.0780     1.7160    -0.1950 ho         1 LPK       0.411000
     22 H10          3.0780     0.0310     1.4110 h1         1 LPK       0.027200
     23 H11          2.6500    -1.6430     1.0610 h1         1 LPK       0.027200
     24 H12          4.8440    -1.1420     0.4680 ho         1 LPK       0.406000
@<TRIPOS>BOND
     1     1     2 1   
     2     1     3 1   
     3     1    13 1   
     4     1    14 1   
     5     2    15 1   
     6     3     4 2   
     7     3     5 1   
     8     5     6 1   
     9     5     7 1   
    10     5    16 1   
    11     6    17 1   
    12     7     8 1   
    13     7     9 1   
    14     7    18 1   
    15     8    19 1   
    16     9    10 1   
    17     9    11 1   
    18     9    20 1   
    19    10    21 1   
    20    11    12 1   
    21    11    22 1   
    22    11    23 1   
    23    12    24 1   
@<TRIPOS>SUBSTRUCTURE
     1 LPK         1 TEMP              0 ****  ****    0 ROOT
