@<TRIPOS>MOLECULE
LPK
   24    23     1     0     0
SMALL
No Charge or Current Charge


@<TRIPOS>ATOM
      1 C1          -2.7500    -0.9130    -0.3250 c3         1 LPK       0.071600
      2 O1          -4.1440    -0.6150    -0.5850 oh         1 LPK      -0.624000
      3 C2          -1.9820     0.2520     0.3710 c          1 LPK       0.548100
      4 O2          -2.5310     0.9990     1.1800 o          1 LPK      -0.483100
      5 C3          -0.5770     0.6190    -0.2110 c3         1 LPK       0.045300
      6 O3          -0.2520     2.0240     0.0250 oh         1 LPK      -0.697000
      7 C4           0.5510    -0.3030     0.3660 c3         1 LPK       0.098300
      8 O4           0.1910    -1.6850     0.1640 oh         1 LPK      -0.704000
      9 C5           1.9790    -0.0240    -0.2280 c3         1 LPK       0.144300
     10 O5           2.3030     1.3680    -0.0490 oh         1 LPK      -0.688000
     11 C6           3.0890    -0.9160     0.4160 c3         1 LPK       0.130600
     12 O6           4.3580    -0.7470    -0.2470 oh         1 LPK      -0.706000
     13 H1          -2.6590    -1.7960     0.3210 h1         1 LPK       0.036200
     14 H2          -2.2370    -1.1470    -1.2670 h1         1 LPK       0.036200
     15 H3          -4.5480    -1.4150    -0.9920 ho         1 LPK       0.448000
     16 H4          -0.6380     0.4380    -1.2930 h1         1 LPK       0.093700
     17 H5          -1.0410     2.4370     0.4620 ho         1 LPK       0.519000
     18 H6           0.6050    -0.1070     1.4470 h1         1 LPK       0.080700
     19 H7           0.4930    -1.9640    -0.7320 ho         1 LPK       0.504000
     20 H8           1.9450    -0.2540    -1.3030 h1         1 LPK       0.077700
     21 H9           1.4150     1.8270    -0.0410 ho         1 LPK       0.510000
     22 H10          3.1780    -0.6610     1.4820 h1         1 LPK       0.027200
     23 H11          2.7860    -1.9700     0.3600 h1         1 LPK       0.027200
     24 H12          5.0250    -1.2590     0.2690 ho         1 LPK       0.505000
@<TRIPOS>BOND
     1     1     2 1   
     2     1     3 1   
     3     1    13 1   
     4     1    14 1   
     5     2    15 1   
     6     3     4 2   
     7     3     5 1   
     8     5     6 1   
     9     5     7 1   
    10     5    16 1   
    11     6    17 1   
    12     7     8 1   
    13     7     9 1   
    14     7    18 1   
    15     8    19 1   
    16     9    10 1   
    17     9    11 1   
    18     9    20 1   
    19    10    21 1   
    20    11    12 1   
    21    11    22 1   
    22    11    23 1   
    23    12    24 1   
@<TRIPOS>SUBSTRUCTURE
     1 LPK         1 TEMP              0 ****  ****    0 ROOT
