@<TRIPOS>MOLECULE
LPL
   43    42     1     0     0
SMALL
bcc


@<TRIPOS>ATOM
      1 N           -1.9270    -0.4090     1.8250 n8         1 LPL      -0.887800
      2 CA          -0.5390     0.0390     1.8880 c3         1 LPL       0.124500
      3 CB           0.1890    -0.3780     3.1690 c3         1 LPL      -0.109400
      4 CG          -0.4170     0.1420     4.4740 c3         1 LPL      -0.062700
      5 CD1          0.3280    -0.4450     5.6680 c3         1 LPL      -0.086100
      6 CD2         -0.4200     1.6670     4.5400 c3         1 LPL      -0.086100
      7 CH           0.2180    -0.4460     0.6430 c3         1 LPL       0.157100
      8 OH           0.1410    -1.8580     0.5200 oh         1 LPL      -0.600800
      9 CM          -0.2520     0.2580    -0.6250 c3         1 LPL      -0.072400
     10 CA1          0.5020    -0.1470    -1.8870 c3         1 LPL      -0.188700
     11 CB1         -0.0490     0.5660    -3.1300 c3         1 LPL      -0.054400
     12 CG1         -1.5100     0.2860    -3.4920 c3         1 LPL      -0.066700
     13 CD3         -1.8990     1.0890    -4.7310 c3         1 LPL      -0.080600
     14 CD4         -1.7710    -1.1990    -3.7210 c3         1 LPL      -0.080600
     15 C            2.0120     0.1600    -1.8070 c          1 LPL       0.926600
     16 O            2.3520     1.2130    -1.2270 o          1 LPL      -0.844300
     17 OXT          2.7820    -0.6450    -2.3720 o          1 LPL      -0.844300
     18 H           -2.5010     0.1490     2.4430 hn         1 LPL       0.325300
     19 H2          -1.9950    -1.3570     2.1780 hn         1 LPL       0.325300
     20 HA          -0.5490     1.1330     1.8300 h1         1 LPL       0.060700
     21 HB2          1.2320    -0.0430     3.1100 hc         1 LPL       0.053700
     22 HB3          0.2260    -1.4730     3.2070 hc         1 LPL       0.053700
     23 HG          -1.4570    -0.2010     4.5340 hc         1 LPL       0.027700
     24 HD11        -0.0970    -0.0990     6.6120 hc         1 LPL       0.029200
     25 HD12         0.2880    -1.5360     5.6650 hc         1 LPL       0.029200
     26 HD13         1.3820    -0.1540     5.6540 hc         1 LPL       0.029200
     27 HD21         0.5950     2.0620     4.4460 hc         1 LPL       0.029200
     28 HD22        -1.0220     2.1130     3.7470 hc         1 LPL       0.029200
     29 HD23        -0.8240     2.0160     5.4910 hc         1 LPL       0.029200
     30 HH           1.2780    -0.2200     0.7920 h1         1 LPL       0.100700
     31 HO          -0.7560    -2.0730     0.2440 ho         1 LPL       0.388000
     32 HM1         -1.3250     0.0700    -0.7400 hc         1 LPL       0.031700
     33 HM2         -0.1470     1.3370    -0.4800 hc         1 LPL       0.031700
     34 HA1          0.3920    -1.2250    -2.0360 hc         1 LPL       0.041700
     35 HB11         0.0790     1.6460    -2.9970 hc         1 LPL       0.039700
     36 HB12         0.5690     0.2890    -3.9940 hc         1 LPL       0.039700
     37 HG1         -2.1500     0.6210    -2.6680 hc         1 LPL       0.035700
     38 HD31        -2.9540     0.9540    -4.9770 hc         1 LPL       0.021367
     39 HD32        -1.7250     2.1570    -4.5870 hc         1 LPL       0.021367
     40 HD33        -1.3150     0.7730    -5.5990 hc         1 LPL       0.021367
     41 HD41        -1.1310    -1.5850    -4.5190 hc         1 LPL       0.021367
     42 HD42        -1.5790    -1.7950    -2.8290 hc         1 LPL       0.021367
     43 HD43        -2.8070    -1.3740    -4.0160 hc         1 LPL       0.021367
@<TRIPOS>BOND
     1     1     2 1   
     2     1    18 1   
     3     1    19 1   
     4     2     3 1   
     5     2     7 1   
     6     2    20 1   
     7     3     4 1   
     8     3    21 1   
     9     3    22 1   
    10     4     5 1   
    11     4     6 1   
    12     4    23 1   
    13     5    24 1   
    14     5    25 1   
    15     5    26 1   
    16     6    27 1   
    17     6    28 1   
    18     6    29 1   
    19     7     8 1   
    20     7     9 1   
    21     7    30 1   
    22     8    31 1   
    23     9    10 1   
    24     9    32 1   
    25     9    33 1   
    26    10    11 1   
    27    10    15 1   
    28    10    34 1   
    29    11    12 1   
    30    11    35 1   
    31    11    36 1   
    32    12    13 1   
    33    12    14 1   
    34    12    37 1   
    35    13    38 1   
    36    13    39 1   
    37    13    40 1   
    38    14    41 1   
    39    14    42 1   
    40    14    43 1   
    41    15    16 1   
    42    15    17 1   
@<TRIPOS>SUBSTRUCTURE
     1 LPL         1 TEMP              0 ****  ****    0 ROOT
