@<TRIPOS>MOLECULE
LPL
   43    42     1     0     0
SMALL
No Charge or Current Charge


@<TRIPOS>ATOM
      1 N           -1.8470    -0.7080     1.9720 n8         1 LPL      -0.887800
      2 CA          -0.5040    -0.0750     1.9240 c3         1 LPL       0.124500
      3 CB           0.2810    -0.4070     3.2240 c3         1 LPL      -0.109400
      4 CG          -0.3540     0.0890     4.5580 c3         1 LPL      -0.062700
      5 CD1          0.4620    -0.4100     5.7720 c3         1 LPL      -0.086100
      6 CD2         -0.5210     1.6270     4.6080 c3         1 LPL      -0.086100
      7 CH           0.2690    -0.5130     0.6380 c3         1 LPL       0.157100
      8 OH           0.1220    -1.9320     0.5170 oh         1 LPL      -0.600800
      9 CM          -0.2780     0.1660    -0.6500 c3         1 LPL      -0.072400
     10 CA1          0.5060    -0.1660    -1.9600 c3         1 LPL      -0.188700
     11 CB1         -0.0360     0.6000    -3.2070 c3         1 LPL      -0.054400
     12 CG1         -1.5220     0.3480    -3.6000 c3         1 LPL      -0.066700
     13 CD3         -1.9240     1.2270    -4.8070 c3         1 LPL      -0.080600
     14 CD4         -1.8340    -1.1410    -3.8830 c3         1 LPL      -0.080600
     15 C            2.0290     0.0840    -1.8040 c          1 LPL       0.926600
     16 O            2.4170     1.2110    -1.5220 o          1 LPL      -0.844300
     17 OXT          2.7980    -0.8550    -1.9650 o          1 LPL      -0.844300
     18 H           -2.4420    -0.2910     1.2490 hn         1 LPL       0.325300
     19 H2          -2.3000    -0.4510     2.8540 hn         1 LPL       0.325300
     20 HA          -0.6380     1.0150     1.8790 h1         1 LPL       0.060700
     21 HB2          1.2880     0.0210     3.1410 hc         1 LPL       0.053700
     22 HB3          0.4170    -1.4940     3.2830 hc         1 LPL       0.053700
     23 HG          -1.3530    -0.3530     4.6490 hc         1 LPL       0.027700
     24 HD11        -0.0140    -0.1060     6.7120 hc         1 LPL       0.029200
     25 HD12         0.5330    -1.5040     5.7690 hc         1 LPL       0.029200
     26 HD13         1.4800     0.0000     5.7550 hc         1 LPL       0.029200
     27 HD21         0.4430     2.1310     4.4610 hc         1 LPL       0.029200
     28 HD22        -1.2160     1.9780     3.8370 hc         1 LPL       0.029200
     29 HD23        -0.9240     1.9400     5.5790 hc         1 LPL       0.029200
     30 HH           1.3260    -0.2360     0.7580 h1         1 LPL       0.100700
     31 HO          -0.7160    -2.1030     1.0050 ho         1 LPL       0.388000
     32 HM1         -1.3290    -0.1170    -0.7760 hc         1 LPL       0.031700
     33 HM2         -0.2650     1.2530    -0.5020 hc         1 LPL       0.031700
     34 HA1          0.3880    -1.2360    -2.1620 hc         1 LPL       0.041700
     35 HB11         0.1010     1.6760    -3.0390 hc         1 LPL       0.039700
     36 HB12         0.5960     0.3450    -4.0670 hc         1 LPL       0.039700
     37 HG1         -2.1570     0.6640    -2.7640 hc         1 LPL       0.035700
     38 HD31        -2.9870     1.0960    -5.0460 hc         1 LPL       0.021367
     39 HD32        -1.7580     2.2890    -4.5870 hc         1 LPL       0.021367
     40 HD33        -1.3380     0.9640    -5.6950 hc         1 LPL       0.021367
     41 HD41        -1.1760    -1.5360    -4.6660 hc         1 LPL       0.021367
     42 HD42        -1.7060    -1.7510    -2.9810 hc         1 LPL       0.021367
     43 HD43        -2.8720    -1.2620    -4.2150 hc         1 LPL       0.021367
@<TRIPOS>BOND
     1     1     2 1   
     2     1    18 1   
     3     1    19 1   
     4     2     3 1   
     5     2     7 1   
     6     2    20 1   
     7     3     4 1   
     8     3    21 1   
     9     3    22 1   
    10     4     5 1   
    11     4     6 1   
    12     4    23 1   
    13     5    24 1   
    14     5    25 1   
    15     5    26 1   
    16     6    27 1   
    17     6    28 1   
    18     6    29 1   
    19     7     8 1   
    20     7     9 1   
    21     7    30 1   
    22     8    31 1   
    23     9    10 1   
    24     9    32 1   
    25     9    33 1   
    26    10    11 1   
    27    10    15 1   
    28    10    34 1   
    29    11    12 1   
    30    11    35 1   
    31    11    36 1   
    32    12    13 1   
    33    12    14 1   
    34    12    37 1   
    35    13    38 1   
    36    13    39 1   
    37    13    40 1   
    38    14    41 1   
    39    14    42 1   
    40    14    43 1   
    41    15    16 1   
    42    15    17 1   
@<TRIPOS>SUBSTRUCTURE
     1 LPL         1 TEMP              0 ****  ****    0 ROOT
