@<TRIPOS>MOLECULE
LPN
   85    89     1     0     0
SMALL
No Charge or Current Charge


@<TRIPOS>ATOM
      1 Cl1         -4.4640    -1.6590     1.6940 cl         1 LPN      -0.179000
      2 C2          -5.1850    -0.4430     0.6360 ca         1 LPN       0.105000
      3 C3          -4.4960     0.0590    -0.4910 ca         1 LPN       0.114100
      4 C4          -6.4550     0.0610     0.9650 ca         1 LPN      -0.094500
      5 O5          -3.2330    -0.3890    -0.8100 os         1 LPN      -0.345100
      6 C6          -5.0810     1.0870    -1.2600 ca         1 LPN       0.105000
      7 C7          -7.0460     1.0740     0.1880 ca         1 LPN      -0.059300
      8 C8          -3.0390    -1.7010    -1.3750 c3         1 LPN       0.161600
      9 Cl9         -4.2370     1.7620    -2.6540 cl         1 LPN      -0.179000
     10 C10         -6.3510     1.5870    -0.9230 ca         1 LPN      -0.094500
     11 C11         -8.4130     1.6270     0.5610 c3         1 LPN      -0.048800
     12 C12         -1.5250    -2.0000    -1.3640 c3         1 LPN       0.161600
     13 O13         -1.1100    -2.1050     0.0110 os         1 LPN      -0.343100
     14 C14          0.2130    -2.1150     0.3900 ca         1 LPN       0.143100
     15 C15          0.4960    -1.9680     1.7550 ca         1 LPN      -0.164500
     16 C16          1.2730    -2.2530    -0.5300 ca         1 LPN      -0.164500
     17 C17          1.8240    -1.9410     2.2080 ca         1 LPN      -0.068500
     18 C18          2.6040    -2.2400    -0.0750 ca         1 LPN      -0.068500
     19 C19          2.8900    -2.0710     1.2970 ca         1 LPN      -0.109300
     20 C20          4.3330    -2.0320     1.8280 c6         1 LPN      -0.000400
     21 C21          5.2840    -1.1190     1.0030 c6         1 LPN      -0.173700
     22 C22          4.9490    -3.4510     1.9250 c6         1 LPN      -0.110400
     23 C23          4.7390     0.3160     0.8070 c          1 LPN       0.619100
     24 C24          6.7250    -1.1160     1.5580 c6         1 LPN       0.158800
     25 C25          6.3960    -3.3920     2.4760 c6         1 LPN       0.148800
     26 O26          4.4130     0.9670     1.7930 o          1 LPN      -0.604100
     27 N27          4.6330     0.8770    -0.4960 n          1 LPN      -0.379800
     28 N28          7.2510    -2.5020     1.6500 n7         1 LPN      -0.846400
     29 C29          5.0960     0.2230    -1.7260 cx         1 LPN       0.038700
     30 C30          3.8890     2.1490    -0.6920 c3         1 LPN       0.147300
     31 C31          6.5430    -0.1520    -1.9680 cx         1 LPN      -0.131400
     32 C32          5.9020     0.9260    -2.7980 cx         1 LPN      -0.131400
     33 C33          2.4020     1.9390    -0.9850 ca         1 LPN      -0.103300
     34 C34          1.8900     1.9400    -2.3040 ca         1 LPN       0.128000
     35 C35          1.5100     1.7470     0.0930 ca         1 LPN      -0.082000
     36 Cl36         2.9180     2.2100    -3.7090 cl         1 LPN      -0.224000
     37 C37          0.5200     1.7340    -2.5290 ca         1 LPN      -0.118000
     38 C38          0.1310     1.5610    -0.1300 ca         1 LPN      -0.064300
     39 C39         -0.3550     1.5430    -1.4500 ca         1 LPN      -0.097000
     40 C40         -0.8260     1.3690     1.0460 c3         1 LPN      -0.034100
     41 C41         -1.9830     2.3950     1.0700 c3         1 LPN      -0.075400
     42 C42         -2.9800     2.1460     2.2170 c3         1 LPN       0.155600
     43 O43         -4.0780     3.0560     2.0460 os         1 LPN      -0.453000
     44 C44         -5.1300     2.9060     3.0120 c3         1 LPN       0.148900
     45 H4          -6.9750    -0.3280     1.8380 ha         1 LPN       0.132500
     46 H8          -3.5640    -2.4720    -0.7980 h1         1 LPN       0.049700
     47 H8A         -3.4130    -1.7320    -2.4060 h1         1 LPN       0.049700
     48 H10         -6.7900     2.3790    -1.5240 ha         1 LPN       0.132500
     49 H11         -8.3160     2.4600     1.2670 hc         1 LPN       0.048700
     50 H11A        -8.9500     1.9950    -0.3210 hc         1 LPN       0.048700
     51 H11B        -9.0400     0.8600     1.0310 hc         1 LPN       0.048700
     52 H12         -1.3270    -2.9360    -1.9010 h1         1 LPN       0.050200
     53 H12A        -0.9960    -1.1850    -1.8760 h1         1 LPN       0.050200
     54 H15         -0.3200    -1.8620     2.4650 ha         1 LPN       0.120500
     55 H16          1.0820    -2.3780    -1.5920 ha         1 LPN       0.120500
     56 H17          2.0210    -1.8170     3.2710 ha         1 LPN       0.111000
     57 H18          3.4080    -2.3650    -0.7950 ha         1 LPN       0.111000
     58 H20          4.3040    -1.6220     2.8480 hc         1 LPN       0.073700
     59 H21          5.3700    -1.5750     0.0140 hc         1 LPN       0.061700
     60 H22          4.3330    -4.0810     2.5800 hc         1 LPN       0.047700
     61 H22A         4.9480    -3.9320     0.9380 hc         1 LPN       0.047700
     62 H24          7.3820    -0.5120     0.9150 h1         1 LPN       0.062700
     63 H24A         6.7320    -0.6510     2.5570 h1         1 LPN       0.062700
     64 H25          6.3780    -3.0250     3.5140 h1         1 LPN       0.054700
     65 H25A         6.8250    -4.4050     2.4940 h1         1 LPN       0.054700
     66 HN28         7.2940    -2.8930     0.7010 hn         1 LPN       0.403000
     67 H29          4.3220    -0.4710    -2.0540 h1         1 LPN       0.080700
     68 H30          3.9880     2.7760     0.2030 h1         1 LPN       0.072700
     69 H30A         4.3530     2.7270    -1.4990 h1         1 LPN       0.072700
     70 H31          7.2900     0.1650    -1.2460 hc         1 LPN       0.078700
     71 H31A         6.7420    -1.1100    -2.4410 hc         1 LPN       0.078700
     72 H32          5.6700     0.6960    -3.8350 hc         1 LPN       0.078700
     73 H32A         6.2240     1.9490    -2.6200 hc         1 LPN       0.078700
     74 H35          1.8930     1.7480     1.1110 ha         1 LPN       0.135000
     75 H37          0.1340     1.7300    -3.5450 ha         1 LPN       0.124000
     76 H39         -1.4110     1.3850    -1.6460 ha         1 LPN       0.130000
     77 H40         -1.2550     0.3620     1.0030 hc         1 LPN       0.058200
     78 H40A        -0.2830     1.4250     1.9970 hc         1 LPN       0.058200
     79 H41         -1.5690     3.4070     1.1630 hc         1 LPN       0.054700
     80 H41A        -2.5300     2.3570     0.1220 hc         1 LPN       0.054700
     81 H42         -3.3330     1.1070     2.1740 h1         1 LPN       0.021700
     82 H42A        -2.4840     2.3050     3.1830 h1         1 LPN       0.021700
     83 H44         -5.5500     1.8920     2.9770 h1         1 LPN       0.024700
     84 H44A        -4.7570     3.0920     4.0270 h1         1 LPN       0.024700
     85 H44B        -5.9400     3.6180     2.8080 h1         1 LPN       0.024700
@<TRIPOS>BOND
     1     1     2 1   
     2     2     3 ar  
     3     2     4 ar  
     4     3     5 1   
     5     3     6 ar  
     6     4     7 ar  
     7     4    45 1   
     8     5     8 1   
     9     6     9 1   
    10     6    10 ar  
    11     7    10 ar  
    12     7    11 1   
    13     8    12 1   
    14     8    46 1   
    15     8    47 1   
    16    10    48 1   
    17    11    49 1   
    18    11    50 1   
    19    11    51 1   
    20    12    13 1   
    21    12    52 1   
    22    12    53 1   
    23    13    14 1   
    24    14    15 ar  
    25    14    16 ar  
    26    15    17 ar  
    27    15    54 1   
    28    16    18 ar  
    29    16    55 1   
    30    17    19 ar  
    31    17    56 1   
    32    18    19 ar  
    33    18    57 1   
    34    19    20 1   
    35    20    21 1   
    36    20    22 1   
    37    20    58 1   
    38    21    23 1   
    39    21    24 1   
    40    21    59 1   
    41    22    25 1   
    42    22    60 1   
    43    22    61 1   
    44    23    26 2   
    45    23    27 1   
    46    24    28 1   
    47    24    62 1   
    48    24    63 1   
    49    25    28 1   
    50    25    64 1   
    51    25    65 1   
    52    27    29 1   
    53    27    30 1   
    54    28    66 1   
    55    29    31 1   
    56    29    32 1   
    57    29    67 1   
    58    30    33 1   
    59    30    68 1   
    60    30    69 1   
    61    31    32 1   
    62    31    70 1   
    63    31    71 1   
    64    32    72 1   
    65    32    73 1   
    66    33    34 ar  
    67    33    35 ar  
    68    34    36 1   
    69    34    37 ar  
    70    35    38 ar  
    71    35    74 1   
    72    37    39 ar  
    73    37    75 1   
    74    38    39 ar  
    75    38    40 1   
    76    39    76 1   
    77    40    41 1   
    78    40    77 1   
    79    40    78 1   
    80    41    42 1   
    81    41    79 1   
    82    41    80 1   
    83    42    43 1   
    84    42    81 1   
    85    42    82 1   
    86    43    44 1   
    87    44    83 1   
    88    44    84 1   
    89    44    85 1   
@<TRIPOS>SUBSTRUCTURE
     1 LPN         1 TEMP              0 ****  ****    0 ROOT
