@<TRIPOS>MOLECULE
LPN
   85    89     1     0     0
SMALL
abcg2


@<TRIPOS>ATOM
      1 CL1         -4.1250    -1.6270     1.6830 cl         1 LPN      -0.179000
      2 C2          -4.9780    -0.4960     0.6970 ca         1 LPN       0.105000
      3 C3          -4.3630    -0.0260    -0.4620 ca         1 LPN       0.114100
      4 C4          -6.2210    -0.0390     1.0960 ca         1 LPN      -0.094500
      5 O5          -3.1230    -0.4090    -0.8090 os         1 LPN      -0.345100
      6 C6          -5.0540     0.9240    -1.2070 ca         1 LPN       0.105000
      7 C7          -6.8940     0.9190     0.3430 ca         1 LPN      -0.059300
      8 C8          -2.9860    -1.6340    -1.5260 c3         1 LPN       0.161600
      9 CL9         -4.3070     1.5450    -2.6360 cl         1 LPN      -0.179000
     10 C10         -6.2950     1.3980    -0.8170 ca         1 LPN      -0.094500
     11 C11         -8.2150     1.4570     0.8060 c3         1 LPN      -0.048800
     12 C12         -1.5270    -2.0110    -1.5100 c3         1 LPN       0.161600
     13 O13         -1.1600    -2.2550    -0.1690 os         1 LPN      -0.343100
     14 C14          0.1360    -2.1620     0.1960 ca         1 LPN       0.143100
     15 C15          0.3790    -2.0070     1.5600 ca         1 LPN      -0.164500
     16 C16          1.2120    -2.2260    -0.6820 ca         1 LPN      -0.164500
     17 C17          1.6760    -1.9150     2.0260 ca         1 LPN      -0.068500
     18 C18          2.5100    -2.1390    -0.1900 ca         1 LPN      -0.068500
     19 C19          2.7720    -1.9790     1.1650 ca         1 LPN      -0.109300
     20 C20          4.1660    -1.9270     1.7370 c6         1 LPN      -0.000400
     21 C21          5.1540    -1.0840     0.9170 c6         1 LPN      -0.173700
     22 C22          4.7500    -3.3290     1.9330 c6         1 LPN      -0.110400
     23 C23          4.6230     0.3270     0.7560 c          1 LPN       0.619100
     24 C24          6.5140    -1.0680     1.6430 c6         1 LPN       0.158800
     25 C25          6.1340    -3.2560     2.5720 c6         1 LPN       0.148800
     26 O26          4.2440     0.9410     1.7440 o          1 LPN      -0.604100
     27 N27          4.5960     0.8830    -0.4860 n          1 LPN      -0.379800
     28 N28          7.0630    -2.3890     1.8680 n7         1 LPN      -0.846400
     29 C29          5.0280     0.1930    -1.6650 cx         1 LPN       0.038700
     30 C30          3.8660     2.1320    -0.6780 c3         1 LPN       0.147300
     31 C31          6.4640    -0.2090    -1.8220 cx         1 LPN      -0.131400
     32 C32          5.9090     0.9090    -2.6370 cx         1 LPN      -0.131400
     33 C33          2.4090     1.9110    -1.0130 ca         1 LPN      -0.103300
     34 C34          1.9100     1.8840    -2.3110 ca         1 LPN       0.128000
     35 C35          1.4920     1.7260     0.0240 ca         1 LPN      -0.082000
     36 CL36         2.9450     2.1540    -3.6850 cl         1 LPN      -0.224000
     37 C37          0.5630     1.6670    -2.5660 ca         1 LPN      -0.118000
     38 C38          0.1380     1.5180    -0.1950 ca         1 LPN      -0.064300
     39 C39         -0.3140     1.4850    -1.5130 ca         1 LPN      -0.097000
     40 C40         -0.8160     1.3600     0.9560 c3         1 LPN      -0.034100
     41 C41         -1.9010     2.4360     0.9790 c3         1 LPN      -0.075400
     42 C42         -2.8470     2.2360     2.1460 c3         1 LPN       0.155600
     43 O43         -3.8710     3.1980     2.0910 os         1 LPN      -0.453000
     44 C44         -4.8440     3.0080     3.0820 c3         1 LPN       0.148900
     45 H4          -6.6630    -0.4210     2.0070 ha         1 LPN       0.132500
     46 H8          -3.5930    -2.4220    -1.0730 h1         1 LPN       0.049700
     47 H8A         -3.3110    -1.5090    -2.5640 h1         1 LPN       0.049700
     48 H10         -6.7960     2.1440    -1.4200 ha         1 LPN       0.132500
     49 H11         -8.0690     2.2360     1.5560 hc         1 LPN       0.048700
     50 H11A        -8.7800     1.8950    -0.0150 hc         1 LPN       0.048700
     51 H11B        -8.8250     0.6780     1.2630 hc         1 LPN       0.048700
     52 H12         -1.3870    -2.9000    -2.1340 h1         1 LPN       0.050200
     53 H12A        -0.9260    -1.2040    -1.9400 h1         1 LPN       0.050200
     54 H15         -0.4580    -1.9440     2.2440 ha         1 LPN       0.120500
     55 H16          1.0630    -2.3460    -1.7470 ha         1 LPN       0.120500
     56 H17          1.8430    -1.7840     3.0890 ha         1 LPN       0.111000
     57 H18          3.3240    -2.2000    -0.9030 ha         1 LPN       0.111000
     58 H20          4.0880    -1.4640     2.7280 hc         1 LPN       0.073700
     59 H21          5.3080    -1.5620    -0.0510 hc         1 LPN       0.061700
     60 H22          4.0810    -3.9200     2.5650 hc         1 LPN       0.047700
     61 H22A         4.8080    -3.8450     0.9680 hc         1 LPN       0.047700
     62 H24          7.2420    -0.4810     1.0790 h1         1 LPN       0.062700
     63 H24A         6.3920    -0.5710     2.6110 h1         1 LPN       0.062700
     64 H25          6.0320    -2.8840     3.5980 h1         1 LPN       0.054700
     65 H25A         6.5730    -4.2530     2.6450 h1         1 LPN       0.054700
     66 HN28         7.2990    -2.8080     0.9760 hn         1 LPN       0.403000
     67 H29          4.2920    -0.4740    -2.1060 h1         1 LPN       0.080700
     68 H30          3.9370     2.7190     0.2350 h1         1 LPN       0.072700
     69 H30A         4.3630     2.7040    -1.4590 h1         1 LPN       0.072700
     70 H31          7.1520     0.0550    -1.0280 hc         1 LPN       0.078700
     71 H31A         6.6690    -1.1620    -2.2920 hc         1 LPN       0.078700
     72 H32          5.7150     0.7490    -3.6890 hc         1 LPN       0.078700
     73 H32A         6.2290     1.9130    -2.3890 hc         1 LPN       0.078700
     74 H35          1.8620     1.7500     1.0410 ha         1 LPN       0.135000
     75 H37          0.2010     1.6480    -3.5850 ha         1 LPN       0.124000
     76 H39         -1.3620     1.3150    -1.7240 ha         1 LPN       0.130000
     77 H40         -1.2910     0.3780     0.9030 hc         1 LPN       0.058200
     78 H40A        -0.2540     1.3810     1.8920 hc         1 LPN       0.058200
     79 H41         -1.4410     3.4270     1.0350 hc         1 LPN       0.054700
     80 H41A        -2.4760     2.4040     0.0490 hc         1 LPN       0.054700
     81 H42         -3.2680     1.2210     2.1070 h1         1 LPN       0.021700
     82 H42A        -2.2950     2.3080     3.0950 h1         1 LPN       0.021700
     83 H44         -5.3340     2.0300     2.9940 h1         1 LPN       0.024700
     84 H44A        -4.4270     3.0820     4.0940 h1         1 LPN       0.024700
     85 H44B        -5.6030     3.7820     2.9670 h1         1 LPN       0.024700
@<TRIPOS>BOND
     1     1     2 1   
     2     2     3 ar  
     3     2     4 ar  
     4     3     5 1   
     5     3     6 ar  
     6     4     7 ar  
     7     4    45 1   
     8     5     8 1   
     9     6     9 1   
    10     6    10 ar  
    11     7    10 ar  
    12     7    11 1   
    13     8    12 1   
    14     8    46 1   
    15     8    47 1   
    16    10    48 1   
    17    11    49 1   
    18    11    50 1   
    19    11    51 1   
    20    12    13 1   
    21    12    52 1   
    22    12    53 1   
    23    13    14 1   
    24    14    15 ar  
    25    14    16 ar  
    26    15    17 ar  
    27    15    54 1   
    28    16    18 ar  
    29    16    55 1   
    30    17    19 ar  
    31    17    56 1   
    32    18    19 ar  
    33    18    57 1   
    34    19    20 1   
    35    20    21 1   
    36    20    22 1   
    37    20    58 1   
    38    21    23 1   
    39    21    24 1   
    40    21    59 1   
    41    22    25 1   
    42    22    60 1   
    43    22    61 1   
    44    23    26 2   
    45    23    27 1   
    46    24    28 1   
    47    24    62 1   
    48    24    63 1   
    49    25    28 1   
    50    25    64 1   
    51    25    65 1   
    52    27    29 1   
    53    27    30 1   
    54    28    66 1   
    55    29    31 1   
    56    29    32 1   
    57    29    67 1   
    58    30    33 1   
    59    30    68 1   
    60    30    69 1   
    61    31    32 1   
    62    31    70 1   
    63    31    71 1   
    64    32    72 1   
    65    32    73 1   
    66    33    34 ar  
    67    33    35 ar  
    68    34    36 1   
    69    34    37 ar  
    70    35    38 ar  
    71    35    74 1   
    72    37    39 ar  
    73    37    75 1   
    74    38    39 ar  
    75    38    40 1   
    76    39    76 1   
    77    40    41 1   
    78    40    77 1   
    79    40    78 1   
    80    41    42 1   
    81    41    79 1   
    82    41    80 1   
    83    42    43 1   
    84    42    81 1   
    85    42    82 1   
    86    43    44 1   
    87    44    83 1   
    88    44    84 1   
    89    44    85 1   
@<TRIPOS>SUBSTRUCTURE
     1 LPN         1 TEMP              0 ****  ****    0 ROOT
