@<TRIPOS>MOLECULE
LPO
   82    86     1     0     0
SMALL
No Charge or Current Charge


@<TRIPOS>ATOM
      1 C1          -4.9750    -3.7220    -0.4730 c6         1 LPO      -0.111400
      2 C2          -6.5020    -3.7780    -0.7420 c6         1 LPO       0.163800
      3 N3          -7.1850    -2.5720    -0.2170 n7         1 LPO      -0.871400
      4 C4          -6.6470    -1.3080    -0.7840 c6         1 LPO       0.167800
      5 C5          -5.1280    -1.2120    -0.5330 c6         1 LPO      -0.128700
      6 C6          -4.3250    -2.4340    -1.0600 c6         1 LPO       0.257300
      7 C7          -4.5440     0.1740    -0.9050 c          1 LPO       0.615100
      8 N8          -4.1180     1.0800     0.1130 n          1 LPO      -0.385800
      9 O9          -4.4450    -2.5080    -2.4840 oh         1 LPO      -0.631000
     10 C10         -2.8360    -2.3340    -0.6600 ca         1 LPO      -0.204300
     11 C11         -2.4720    -2.2660     0.7030 ca         1 LPO       0.382900
     12 N12         -1.2010    -2.1390     1.1390 nb         1 LPO      -0.759000
     13 C13         -0.2230    -2.0850     0.2150 ca         1 LPO       0.590300
     14 C14         -0.4770    -2.1720    -1.1580 ca         1 LPO      -0.186000
     15 C15         -1.7960    -2.2830    -1.6150 ca         1 LPO      -0.027000
     16 O16          1.0820    -1.9430     0.6050 os         1 LPO      -0.456300
     17 C17          1.4250    -1.4970     1.9330 c3         1 LPO       0.171600
     18 C18          2.9320    -1.1620     1.9430 c3         1 LPO       0.159600
     19 O19          3.1260     0.0050     1.1230 os         1 LPO      -0.342100
     20 C20          4.3930     0.3860     0.7390 ca         1 LPO       0.109100
     21 C21          5.0800    -0.3070    -0.2830 ca         1 LPO       0.102500
     22 C22          6.3540     0.1250    -0.6900 ca         1 LPO      -0.099000
     23 C23          6.9520     1.2500    -0.0920 ca         1 LPO      -0.061300
     24 C24          6.2600     1.9480     0.9160 ca         1 LPO      -0.099000
     25 C25          4.9850     1.5220     1.3270 ca         1 LPO       0.102500
     26 Cl26         4.1450     2.4270     2.5870 cl         1 LPO      -0.172500
     27 Cl27         4.3590    -1.6960    -1.1000 cl         1 LPO      -0.172500
     28 C28          8.3270     1.7180    -0.5440 c3         1 LPO      -0.049800
     29 O29         -4.4740     0.5040    -2.0830 o          1 LPO      -0.582100
     30 C30         -3.4530     2.3610    -0.2550 c3         1 LPO       0.142300
     31 C31         -4.2170     0.8280     1.5580 cx         1 LPO       0.033700
     32 C32         -1.9430     2.3670    -0.0050 ca         1 LPO      -0.100300
     33 C33         -1.1060     1.6340    -0.8730 ca         1 LPO      -0.087000
     34 C34          0.2950     1.6370    -0.7080 ca         1 LPO      -0.070300
     35 C35          0.8560     2.3570     0.3640 ca         1 LPO      -0.090000
     36 C36          0.0350     3.0880     1.2330 ca         1 LPO      -0.112000
     37 C37         -1.3550     3.1080     1.0480 ca         1 LPO       0.129000
     38 C38         -5.5300     0.5890     2.2730 cx         1 LPO      -0.131400
     39 C39         -4.7460     1.8410     2.5520 cx         1 LPO      -0.131400
     40 Cl40        -2.3100     4.1020     2.1490 cl         1 LPO      -0.221000
     41 C41          1.1920     0.8710    -1.6800 c3         1 LPO      -0.041100
     42 C42          2.3750     1.7030    -2.2180 c3         1 LPO       0.162600
     43 O43          3.0860     0.8950    -3.1690 os         1 LPO      -0.454000
     44 C44          4.2810     1.5030    -3.6860 c3         1 LPO       0.149900
     45 H1          -4.8130    -3.7710     0.6120 hc         1 LPO       0.055200
     46 H1A         -4.4930    -4.6160    -0.8900 hc         1 LPO       0.055200
     47 H2          -6.6880    -3.8650    -1.8230 h1         1 LPO       0.034200
     48 H2A         -6.9250    -4.6730    -0.2630 h1         1 LPO       0.034200
     49 HN3         -8.1880    -2.6360    -0.4370 hn         1 LPO       0.417000
     50 H4          -6.8480    -1.2670    -1.8660 h1         1 LPO       0.050700
     51 H4A         -7.1570    -0.4510    -0.3200 h1         1 LPO       0.050700
     52 H5          -5.0500    -1.2940     0.5500 hc         1 LPO       0.078700
     53 HO9         -4.0750    -3.3750    -2.7470 ho         1 LPO       0.440000
     54 H11         -3.2290    -2.3010     1.4860 h4         1 LPO       0.016100
     55 H14          0.3490    -2.1340    -1.8600 ha         1 LPO       0.143000
     56 H15         -1.9840    -2.3200    -2.6860 ha         1 LPO       0.132000
     57 H17          0.8580    -0.5980     2.2080 h1         1 LPO       0.062700
     58 H17A         1.2150    -2.2800     2.6730 h1         1 LPO       0.062700
     59 H18          3.2590    -0.9640     2.9720 h1         1 LPO       0.048700
     60 H18A         3.4980    -2.0220     1.5630 h1         1 LPO       0.048700
     61 H22          6.8730    -0.4120    -1.4800 ha         1 LPO       0.133000
     62 H24          6.7070     2.8240     1.3790 ha         1 LPO       0.133000
     63 H28          8.2440     2.4200    -1.3810 hc         1 LPO       0.048700
     64 H28A         8.8640     2.2240     0.2670 hc         1 LPO       0.048700
     65 H28B         8.9470     0.8760    -0.8730 hc         1 LPO       0.048700
     66 H30         -3.6210     2.5880    -1.3160 h1         1 LPO       0.074700
     67 H30A        -3.9380     3.1810     0.2850 h1         1 LPO       0.074700
     68 H31         -3.3500     0.2380     1.8600 h1         1 LPO       0.086700
     69 H33         -1.5490     1.0710    -1.6920 ha         1 LPO       0.131000
     70 H35          1.9310     2.3620     0.5250 ha         1 LPO       0.124000
     71 H36          0.4800     3.6530     2.0480 ha         1 LPO       0.126000
     72 H38         -6.4510     0.6940     1.7050 hc         1 LPO       0.078950
     73 H38A        -5.5530    -0.1800     3.0410 hc         1 LPO       0.078950
     74 H39         -4.2370     1.9180     3.5100 hc         1 LPO       0.078950
     75 H39A        -5.1590     2.7750     2.1810 hc         1 LPO       0.078950
     76 H41          1.5980    -0.0160    -1.1830 hc         1 LPO       0.070700
     77 H41A         0.6070     0.5090    -2.5340 hc         1 LPO       0.070700
     78 H42          1.9950     2.6170    -2.6930 h1         1 LPO       0.022200
     79 H42A         3.0360     1.9900    -1.3900 h1         1 LPO       0.022200
     80 H44          4.0480     2.4420    -4.2030 h1         1 LPO       0.025367
     81 H44A         4.9910     1.7170    -2.8760 h1         1 LPO       0.025367
     82 H44B         4.7720     0.8300    -4.4010 h1         1 LPO       0.025367
@<TRIPOS>BOND
     1     1     2 1   
     2     1     6 1   
     3     1    45 1   
     4     1    46 1   
     5     2     3 1   
     6     2    47 1   
     7     2    48 1   
     8     3     4 1   
     9     3    49 1   
    10     4     5 1   
    11     4    50 1   
    12     4    51 1   
    13     5     6 1   
    14     5     7 1   
    15     5    52 1   
    16     6     9 1   
    17     6    10 1   
    18     7     8 1   
    19     7    29 2   
    20     8    30 1   
    21     8    31 1   
    22     9    53 1   
    23    10    11 ar  
    24    10    15 ar  
    25    11    12 ar  
    26    11    54 1   
    27    12    13 ar  
    28    13    14 ar  
    29    13    16 1   
    30    14    15 ar  
    31    14    55 1   
    32    15    56 1   
    33    16    17 1   
    34    17    18 1   
    35    17    57 1   
    36    17    58 1   
    37    18    19 1   
    38    18    59 1   
    39    18    60 1   
    40    19    20 1   
    41    20    21 ar  
    42    20    25 ar  
    43    21    22 ar  
    44    21    27 1   
    45    22    23 ar  
    46    22    61 1   
    47    23    24 ar  
    48    23    28 1   
    49    24    25 ar  
    50    24    62 1   
    51    25    26 1   
    52    28    63 1   
    53    28    64 1   
    54    28    65 1   
    55    30    32 1   
    56    30    66 1   
    57    30    67 1   
    58    31    38 1   
    59    31    39 1   
    60    31    68 1   
    61    32    33 ar  
    62    32    37 ar  
    63    33    34 ar  
    64    33    69 1   
    65    34    35 ar  
    66    34    41 1   
    67    35    36 ar  
    68    35    70 1   
    69    36    37 ar  
    70    36    71 1   
    71    37    40 1   
    72    38    39 1   
    73    38    72 1   
    74    38    73 1   
    75    39    74 1   
    76    39    75 1   
    77    41    42 1   
    78    41    76 1   
    79    41    77 1   
    80    42    43 1   
    81    42    78 1   
    82    42    79 1   
    83    43    44 1   
    84    44    80 1   
    85    44    81 1   
    86    44    82 1   
@<TRIPOS>SUBSTRUCTURE
     1 LPO         1 TEMP              0 ****  ****    0 ROOT
