@<TRIPOS>MOLECULE
LPO
   82    86     1     0     0
SMALL
bcc


@<TRIPOS>ATOM
      1 C1          -4.9490    -3.5590    -0.3600 c6         1 LPO      -0.111400
      2 C2          -6.4530    -3.5680    -0.5960 c6         1 LPO       0.163800
      3 N3          -7.0460    -2.3640    -0.0430 n7         1 LPO      -0.816200
      4 C4          -6.5120    -1.1570    -0.6420 c6         1 LPO       0.167800
      5 C5          -5.0100    -1.0840    -0.3530 c6         1 LPO      -0.128700
      6 C6          -4.2880    -2.3070    -0.9630 c6         1 LPO       0.234100
      7 C7          -4.4440     0.2410    -0.8290 c          1 LPO       0.682100
      8 N8          -4.0260     1.1440     0.1040 n          1 LPO      -0.452800
      9 O9          -4.4800    -2.2980    -2.3560 oh         1 LPO      -0.568800
     10 C10         -2.8050    -2.2760    -0.6250 ca         1 LPO      -0.269600
     11 C11         -2.3570    -2.1550     0.6800 ca         1 LPO       0.448200
     12 N12         -1.0740    -2.1240     1.0360 nb         1 LPO      -0.759000
     13 C13         -0.1640    -2.2240     0.0920 ca         1 LPO       0.655600
     14 C14         -0.4870    -2.3780    -1.2580 ca         1 LPO      -0.269300
     15 C15         -1.8180    -2.3890    -1.6070 ca         1 LPO      -0.045000
     16 O16          1.1330    -2.1840     0.4090 os         1 LPO      -0.433100
     17 C17          1.5090    -1.7880     1.7180 c3         1 LPO       0.148400
     18 C18          2.9660    -1.4130     1.6820 c3         1 LPO       0.136400
     19 O19          3.0940    -0.2600     0.8550 os         1 LPO      -0.318900
     20 C20          4.3190     0.2820     0.7480 ca         1 LPO       0.109100
     21 C21          5.1890    -0.0820    -0.2750 ca         1 LPO       0.010900
     22 C22          6.4250     0.5230    -0.4280 ca         1 LPO      -0.117000
     23 C23          6.8340     1.5190     0.4530 ca         1 LPO      -0.061300
     24 C24          5.9760     1.8960     1.4820 ca         1 LPO      -0.117000
     25 C25          4.7430     1.2830     1.6200 ca         1 LPO       0.010900
     26 CL26         3.6690     1.7800     2.8790 cl         1 LPO      -0.080900
     27 CL27         4.6830    -1.2990    -1.3880 cl         1 LPO      -0.080900
     28 C28          8.1580     2.2020     0.2740 c3         1 LPO      -0.049800
     29 O29         -4.4120     0.5000    -2.0230 o          1 LPO      -0.582100
     30 C30         -3.3910     2.3800    -0.3370 c3         1 LPO       0.142300
     31 C31         -3.9660     0.8920     1.5150 cx         1 LPO       0.033700
     32 C32         -1.8940     2.3540    -0.1460 ca         1 LPO      -0.100300
     33 C33         -1.1200     1.5580    -0.9920 ca         1 LPO      -0.105000
     34 C34          0.2620     1.4690    -0.8890 ca         1 LPO      -0.070300
     35 C35          0.8870     2.1910     0.1270 ca         1 LPO      -0.108000
     36 C36          0.1550     3.0000     0.9750 ca         1 LPO      -0.130000
     37 C37         -1.2230     3.0850     0.8280 ca         1 LPO       0.037400
     38 C38         -5.2040     0.5870     2.3030 cx         1 LPO      -0.131400
     39 C39         -4.5310     1.9070     2.4610 cx         1 LPO      -0.131400
     40 CL40        -2.0710     4.1670     1.8950 cl         1 LPO      -0.129400
     41 C41          1.0650     0.6400    -1.8520 c3         1 LPO      -0.041100
     42 C42          2.0800     1.4760    -2.6170 c3         1 LPO       0.139400
     43 O43          2.7300     0.6510    -3.5490 os         1 LPO      -0.407600
     44 C44          3.8740     1.2480    -4.0990 c3         1 LPO       0.126700
     45 H1          -4.7480    -3.6060     0.7130 hc         1 LPO       0.055200
     46 H1A         -4.4950    -4.4530    -0.7990 hc         1 LPO       0.055200
     47 H2          -6.6560    -3.6930    -1.6700 h1         1 LPO       0.034200
     48 H2A         -6.8880    -4.4350    -0.0950 h1         1 LPO       0.034200
     49 HN3         -8.0490    -2.3880    -0.1730 hn         1 LPO       0.361800
     50 H4          -6.6820    -1.0890    -1.7250 h1         1 LPO       0.050700
     51 H4A         -7.0110    -0.2970    -0.1870 h1         1 LPO       0.050700
     52 H5          -4.9030    -1.1820     0.7250 hc         1 LPO       0.078700
     53 HO9         -4.3970    -3.2000    -2.6830 ho         1 LPO       0.401000
     54 H11         -3.0620    -2.0800     1.5010 h4         1 LPO       0.016100
     55 H14          0.2920    -2.4570    -2.0040 ha         1 LPO       0.161000
     56 H15         -2.0870    -2.4810    -2.6500 ha         1 LPO       0.150000
     57 H17          0.9100    -0.9400     2.0580 h1         1 LPO       0.062700
     58 H17A         1.3690    -2.6050     2.4320 h1         1 LPO       0.062700
     59 H18          3.2930    -1.1990     2.7040 h1         1 LPO       0.048700
     60 H18A         3.5760    -2.2360     1.2960 h1         1 LPO       0.048700
     61 H22          7.0750     0.2120    -1.2360 ha         1 LPO       0.151000
     62 H24          6.2690     2.6700     2.1800 ha         1 LPO       0.151000
     63 H28          8.0430     3.1200    -0.3040 hc         1 LPO       0.048700
     64 H28A         8.5980     2.4740     1.2330 hc         1 LPO       0.048700
     65 H28B         8.8650     1.5660    -0.2570 hc         1 LPO       0.048700
     66 H30         -3.6160     2.5250    -1.3910 h1         1 LPO       0.074700
     67 H30A        -3.8370     3.2140     0.2010 h1         1 LPO       0.074700
     68 H31         -3.0530     0.4070     1.8490 h1         1 LPO       0.086700
     69 H33         -1.6260     0.9980    -1.7700 ha         1 LPO       0.149000
     70 H35          1.9580     2.1380     0.2610 ha         1 LPO       0.142000
     71 H36          0.6540     3.5640     1.7520 ha         1 LPO       0.144000
     72 H38         -6.1490     0.5770     1.7750 hc         1 LPO       0.078950
     73 H38A        -5.1240    -0.1540     3.0880 hc         1 LPO       0.078950
     74 H39         -3.9680     2.1110     3.3610 hc         1 LPO       0.078950
     75 H39A        -5.0340     2.7700     2.0450 hc         1 LPO       0.078950
     76 H41          1.5950    -0.1470    -1.3120 hc         1 LPO       0.070700
     77 H41A         0.3930     0.1520    -2.5620 hc         1 LPO       0.070700
     78 H42          1.5810     2.3170    -3.1210 h1         1 LPO       0.022200
     79 H42A         2.8070     1.9150    -1.9180 h1         1 LPO       0.022200
     80 H44          3.6480     2.1940    -4.6060 h1         1 LPO       0.025367
     81 H44A         4.6350     1.4500    -3.3350 h1         1 LPO       0.025367
     82 H44B         4.2970     0.5600    -4.8300 h1         1 LPO       0.025367
@<TRIPOS>BOND
     1     1     2 1   
     2     1     6 1   
     3     1    45 1   
     4     1    46 1   
     5     2     3 1   
     6     2    47 1   
     7     2    48 1   
     8     3     4 1   
     9     3    49 1   
    10     4     5 1   
    11     4    50 1   
    12     4    51 1   
    13     5     6 1   
    14     5     7 1   
    15     5    52 1   
    16     6     9 1   
    17     6    10 1   
    18     7     8 1   
    19     7    29 2   
    20     8    30 1   
    21     8    31 1   
    22     9    53 1   
    23    10    11 ar  
    24    10    15 ar  
    25    11    12 ar  
    26    11    54 1   
    27    12    13 ar  
    28    13    14 ar  
    29    13    16 1   
    30    14    15 ar  
    31    14    55 1   
    32    15    56 1   
    33    16    17 1   
    34    17    18 1   
    35    17    57 1   
    36    17    58 1   
    37    18    19 1   
    38    18    59 1   
    39    18    60 1   
    40    19    20 1   
    41    20    21 ar  
    42    20    25 ar  
    43    21    22 ar  
    44    21    27 1   
    45    22    23 ar  
    46    22    61 1   
    47    23    24 ar  
    48    23    28 1   
    49    24    25 ar  
    50    24    62 1   
    51    25    26 1   
    52    28    63 1   
    53    28    64 1   
    54    28    65 1   
    55    30    32 1   
    56    30    66 1   
    57    30    67 1   
    58    31    38 1   
    59    31    39 1   
    60    31    68 1   
    61    32    33 ar  
    62    32    37 ar  
    63    33    34 ar  
    64    33    69 1   
    65    34    35 ar  
    66    34    41 1   
    67    35    36 ar  
    68    35    70 1   
    69    36    37 ar  
    70    36    71 1   
    71    37    40 1   
    72    38    39 1   
    73    38    72 1   
    74    38    73 1   
    75    39    74 1   
    76    39    75 1   
    77    41    42 1   
    78    41    76 1   
    79    41    77 1   
    80    42    43 1   
    81    42    78 1   
    82    42    79 1   
    83    43    44 1   
    84    44    80 1   
    85    44    81 1   
    86    44    82 1   
@<TRIPOS>SUBSTRUCTURE
     1 LPO         1 TEMP              0 ****  ****    0 ROOT
