@<TRIPOS>MOLECULE
LPQ
   83    88     1     0     0
SMALL
No Charge or Current Charge


@<TRIPOS>ATOM
      1 C1          -4.9650    -3.4000    -1.8680 c6         1 LPQ      -0.071400
      2 C2          -6.4640    -3.3160    -2.2510 c6         1 LPQ       0.158800
      3 N3          -7.2140    -2.4450    -1.3130 n7         1 LPQ      -0.867400
      4 C4          -6.6740    -1.0650    -1.2420 c6         1 LPQ       0.165800
      5 C5          -5.1770    -1.0820    -0.8660 c6         1 LPQ      -0.135700
      6 C6          -4.3270    -1.9880    -1.8010 c6         1 LPQ       0.003600
      7 C7          -2.8500    -2.0480    -1.3840 ca         1 LPQ      -0.165300
      8 C8          -2.4640    -2.3800    -0.0670 ca         1 LPQ       0.381900
      9 N9          -1.1800    -2.4060     0.3490 nb         1 LPQ      -0.755000
     10 C10         -0.2220    -2.1080    -0.5530 ca         1 LPQ       0.586300
     11 C11         -0.5100    -1.8020    -1.8900 ca         1 LPQ      -0.185000
     12 C12         -1.8420    -1.7610    -2.3200 ca         1 LPQ      -0.039000
     13 O13          1.0950    -2.0920    -0.1720 os         1 LPQ      -0.457300
     14 C14          1.4730    -2.1700     1.2180 c3         1 LPQ       0.171600
     15 C15         -4.6060     0.3480    -0.7120 c          1 LPQ       0.612100
     16 O16         -4.4420     1.0300    -1.7180 o          1 LPQ      -0.614100
     17 N17         -4.2800     0.8660     0.5730 n          1 LPQ      -0.376800
     18 C18          2.9860    -1.8880     1.3180 c3         1 LPQ       0.156600
     19 O19          3.1980    -0.5010     0.9960 os         1 LPQ      -0.337100
     20 C20          4.4780    -0.0110     0.8750 ca         1 LPQ       0.117100
     21 C21          5.2240    -0.2280    -0.3040 ca         1 LPQ       0.105000
     22 C22          6.5240     0.2960    -0.4190 ca         1 LPQ      -0.096500
     23 C23          7.0880     1.0430     0.6340 ca         1 LPQ      -0.061300
     24 C24          6.3350     1.2720     1.8010 ca         1 LPQ      -0.096500
     25 C25          5.0350     0.7520     1.9220 ca         1 LPQ       0.105000
     26 Cl26         4.5470    -1.1280    -1.6630 cl         1 LPQ      -0.181000
     27 Cl27         4.1160     1.0640     3.3960 cl         1 LPQ      -0.181000
     28 C28          8.4920     1.6120     0.5030 c3         1 LPQ      -0.048800
     29 C29         -3.5770     2.1710     0.6910 c3         1 LPQ       0.144300
     30 C30         -4.4860     0.1510     1.8390 cx         1 LPQ       0.033700
     31 C31         -2.0650     2.0370     0.8890 ca         1 LPQ      -0.107300
     32 C32         -1.2600     1.6970    -0.2190 ca         1 LPQ      -0.087000
     33 C33          0.1410     1.5960    -0.0920 ca         1 LPQ      -0.084300
     34 C34          0.7390     1.8230     1.1600 ca         1 LPQ      -0.066000
     35 C35         -0.0510     2.1530     2.2700 ca         1 LPQ      -0.120000
     36 C36         -1.4450     2.2670     2.1410 ca         1 LPQ       0.134000
     37 Cl37        -2.3640     2.7270     3.5730 cl         1 LPQ      -0.222000
     38 C38          1.0110     1.2570    -1.2940 c3         1 LPQ       0.205100
     39 N39          1.7680     2.4420    -1.7370 n7         1 LPQ      -0.833400
     40 C40         -5.8500    -0.2850     2.3290 cx         1 LPQ      -0.130900
     41 C41         -5.0960     0.7850     3.0710 cx         1 LPQ      -0.130900
     42 C42          2.6660     2.2070    -2.8420 cx         1 LPQ       0.127500
     43 C43          2.9890     3.3910    -3.7170 cx         1 LPQ      -0.160400
     44 C44          2.0840     2.2970    -4.2300 cx         1 LPQ      -0.160400
     45 H1          -4.8650    -3.9080    -0.8990 hc         1 LPQ       0.051200
     46 H1A         -4.4310    -4.0180    -2.6020 hc         1 LPQ       0.051200
     47 H2          -6.5600    -2.9210    -3.2740 h1         1 LPQ       0.032200
     48 H2A         -6.9010    -4.3250    -2.2420 h1         1 LPQ       0.032200
     49 HN3         -8.1970    -2.4040    -1.6120 hn         1 LPQ       0.415000
     50 H4          -6.8020    -0.5700    -2.2170 h1         1 LPQ       0.041700
     51 H4A         -7.2420    -0.4860    -0.4990 h1         1 LPQ       0.041700
     52 H5          -5.1500    -1.5580     0.1160 hc         1 LPQ       0.078700
     53 H6          -4.3820    -1.5570    -2.8120 hc         1 LPQ       0.068700
     54 H8          -3.2100    -2.6260     0.6880 h4         1 LPQ       0.017100
     55 H11          0.3010    -1.5840    -2.5770 ha         1 LPQ       0.138000
     56 H12         -2.0820    -1.5070    -3.3510 ha         1 LPQ       0.122000
     57 H14          0.9310    -1.4280     1.8190 h1         1 LPQ       0.062200
     58 H14A         1.2580    -3.1670     1.6230 h1         1 LPQ       0.062200
     59 H18          3.3300    -2.0990     2.3390 h1         1 LPQ       0.048200
     60 H18A         3.5280    -2.5470     0.6290 h1         1 LPQ       0.048200
     61 H22          7.0900     0.1260    -1.3310 ha         1 LPQ       0.132500
     62 H24          6.7550     1.8560     2.6160 ha         1 LPQ       0.132500
     63 H28          8.4680     2.6120     0.0540 hc         1 LPQ       0.048033
     64 H28A         8.9840     1.6950     1.4790 hc         1 LPQ       0.048033
     65 H28B         9.1240     0.9760    -0.1300 hc         1 LPQ       0.048033
     66 H29         -3.7540     2.7750    -0.2080 h1         1 LPQ       0.073200
     67 H29A        -4.0220     2.7490     1.5090 h1         1 LPQ       0.073200
     68 H30         -3.6430    -0.5260     1.9880 h1         1 LPQ       0.088700
     69 H32         -1.7240     1.5240    -1.1880 ha         1 LPQ       0.129000
     70 H34          1.8190     1.7570     1.2660 ha         1 LPQ       0.141000
     71 H35          0.4190     2.3340     3.2330 ha         1 LPQ       0.126000
     72 H38          1.6980     0.4460    -1.0160 h1         1 LPQ       0.049700
     73 H38A         0.3770     0.8830    -2.1090 h1         1 LPQ       0.049700
     74 HN39         1.0910     3.1650    -2.0020 hn         1 LPQ       0.411000
     75 H40         -6.7240     0.0240     1.7630 hc         1 LPQ       0.079450
     76 H40A        -5.9290    -1.2660     2.7910 hc         1 LPQ       0.079450
     77 H41         -4.6650     0.5260     4.0350 hc         1 LPQ       0.079450
     78 H41A        -5.4800     1.7990     3.0030 hc         1 LPQ       0.079450
     79 H42          3.4630     1.4770    -2.6760 h1         1 LPQ       0.096700
     80 H43          2.5390     4.3500    -3.4720 hc         1 LPQ       0.070950
     81 H43A         3.9930     3.4520    -4.1280 hc         1 LPQ       0.070950
     82 H44          2.4810     1.6220    -4.9840 hc         1 LPQ       0.070950
     83 H44A         1.0240     2.5190    -4.3310 hc         1 LPQ       0.070950
@<TRIPOS>BOND
     1     1     2 1   
     2     1     6 1   
     3     1    45 1   
     4     1    46 1   
     5     2     3 1   
     6     2    47 1   
     7     2    48 1   
     8     3     4 1   
     9     3    49 1   
    10     4     5 1   
    11     4    50 1   
    12     4    51 1   
    13     5     6 1   
    14     5    15 1   
    15     5    52 1   
    16     6     7 1   
    17     6    53 1   
    18     7     8 ar  
    19     7    12 ar  
    20     8     9 ar  
    21     8    54 1   
    22     9    10 ar  
    23    10    11 ar  
    24    10    13 1   
    25    11    12 ar  
    26    11    55 1   
    27    12    56 1   
    28    13    14 1   
    29    14    18 1   
    30    14    57 1   
    31    14    58 1   
    32    15    16 2   
    33    15    17 1   
    34    17    29 1   
    35    17    30 1   
    36    18    19 1   
    37    18    59 1   
    38    18    60 1   
    39    19    20 1   
    40    20    21 ar  
    41    20    25 ar  
    42    21    22 ar  
    43    21    26 1   
    44    22    23 ar  
    45    22    61 1   
    46    23    24 ar  
    47    23    28 1   
    48    24    25 ar  
    49    24    62 1   
    50    25    27 1   
    51    28    63 1   
    52    28    64 1   
    53    28    65 1   
    54    29    31 1   
    55    29    66 1   
    56    29    67 1   
    57    30    40 1   
    58    30    41 1   
    59    30    68 1   
    60    31    32 ar  
    61    31    36 ar  
    62    32    33 ar  
    63    32    69 1   
    64    33    34 ar  
    65    33    38 1   
    66    34    35 ar  
    67    34    70 1   
    68    35    36 ar  
    69    35    71 1   
    70    36    37 1   
    71    38    39 1   
    72    38    72 1   
    73    38    73 1   
    74    39    42 1   
    75    39    74 1   
    76    40    41 1   
    77    40    75 1   
    78    40    76 1   
    79    41    77 1   
    80    41    78 1   
    81    42    43 1   
    82    42    44 1   
    83    42    79 1   
    84    43    44 1   
    85    43    80 1   
    86    43    81 1   
    87    44    82 1   
    88    44    83 1   
@<TRIPOS>SUBSTRUCTURE
     1 LPQ         1 TEMP              0 ****  ****    0 ROOT
