@<TRIPOS>MOLECULE
LPQ
   83    88     1     0     0
SMALL
abcg2


@<TRIPOS>ATOM
      1 C1          -4.8300    -3.3250    -1.8670 c6         1 LPQ      -0.071400
      2 C2          -6.2870    -3.2610    -2.3000 c6         1 LPQ       0.158800
      3 N3          -7.0540    -2.4900    -1.3400 n7         1 LPQ      -0.867400
      4 C4          -6.5810    -1.1250    -1.2380 c6         1 LPQ       0.165800
      5 C5          -5.1390    -1.1250    -0.7190 c6         1 LPQ      -0.135700
      6 C6          -4.2540    -1.9180    -1.6930 c6         1 LPQ       0.003600
      7 C7          -2.8030    -1.9440    -1.2940 ca         1 LPQ      -0.165300
      8 C8          -2.3800    -2.1450     0.0080 ca         1 LPQ       0.381900
      9 N9          -1.1020    -2.1630     0.3880 nb         1 LPQ      -0.755000
     10 C10         -0.1780    -1.9920    -0.5290 ca         1 LPQ       0.586300
     11 C11         -0.4710    -1.8120    -1.8840 ca         1 LPQ      -0.185000
     12 C12         -1.7970    -1.7830    -2.2510 ca         1 LPQ      -0.039000
     13 O13          1.1130    -1.9880    -0.1820 os         1 LPQ      -0.457300
     14 C14          1.4460    -1.9010     1.1940 c3         1 LPQ       0.171600
     15 C15         -4.6250     0.2970    -0.5960 c          1 LPQ       0.612100
     16 O16         -4.4520     0.9540    -1.6150 o          1 LPQ      -0.614100
     17 N17         -4.3810     0.8160     0.6360 n          1 LPQ      -0.376800
     18 C18          2.9220    -1.6270     1.2880 c3         1 LPQ       0.156600
     19 O19          3.1770    -0.3530     0.7000 os         1 LPQ      -0.337100
     20 C20          4.4680     0.0150     0.6310 ca         1 LPQ       0.117100
     21 C21          5.2600    -0.3110    -0.4680 ca         1 LPQ       0.105000
     22 C22          6.5770     0.1010    -0.5640 ca         1 LPQ      -0.096500
     23 C23          7.1520     0.8590     0.4530 ca         1 LPQ      -0.061300
     24 C24          6.3750     1.1960     1.5560 ca         1 LPQ      -0.096500
     25 C25          5.0580     0.7740     1.6370 ca         1 LPQ       0.105000
     26 CL26         4.5510    -1.2300    -1.7470 cl         1 LPQ      -0.181000
     27 CL27         4.0990     1.2090     3.0070 cl         1 LPQ      -0.181000
     28 C28          8.5730     1.3240     0.3390 c3         1 LPQ      -0.048800
     29 C29         -3.7380     2.1220     0.7370 c3         1 LPQ       0.144300
     30 C30         -4.5090     0.0910     1.8680 cx         1 LPQ       0.033700
     31 C31         -2.2430     2.0270     0.9230 ca         1 LPQ      -0.107300
     32 C32         -1.4330     1.7370    -0.1790 ca         1 LPQ      -0.087000
     33 C33         -0.0530     1.6550    -0.0950 ca         1 LPQ      -0.084300
     34 C34          0.5490     1.8610     1.1450 ca         1 LPQ      -0.066000
     35 C35         -0.2180     2.1470     2.2580 ca         1 LPQ      -0.120000
     36 C36         -1.6010     2.2360     2.1380 ca         1 LPQ       0.134000
     37 CL37        -2.4960     2.6500     3.5720 cl         1 LPQ      -0.222000
     38 C38          0.7890     1.3980    -1.3130 c3         1 LPQ       0.205100
     39 N39          1.7320     2.4820    -1.5270 n7         1 LPQ      -0.833400
     40 C40         -5.8200    -0.5040     2.2840 cx         1 LPQ      -0.130900
     41 C41         -5.3000     0.7070     2.9810 cx         1 LPQ      -0.130900
     42 C42          2.6550     2.2080    -2.5860 cx         1 LPQ       0.127500
     43 C43          3.1330     3.3100    -3.4660 cx         1 LPQ      -0.160400
     44 C44          2.2520     2.2290    -4.0350 cx         1 LPQ      -0.160400
     45 H1          -4.7490    -3.8810    -0.9270 hc         1 LPQ       0.051200
     46 H1A         -4.2470    -3.8720    -2.6120 hc         1 LPQ       0.051200
     47 H2          -6.3350    -2.8390    -3.3170 h1         1 LPQ       0.032200
     48 H2A         -6.7030    -4.2690    -2.3560 h1         1 LPQ       0.032200
     49 HN3         -8.0300    -2.4850    -1.6060 hn         1 LPQ       0.415000
     50 H4          -6.6130    -0.5830    -2.1970 h1         1 LPQ       0.041700
     51 H4A         -7.2270    -0.5820    -0.5450 h1         1 LPQ       0.041700
     52 H5          -5.1520    -1.6370     0.2410 hc         1 LPQ       0.078700
     53 H6          -4.3110    -1.4180    -2.6660 hc         1 LPQ       0.068700
     54 H8          -3.1010    -2.3020     0.8040 h4         1 LPQ       0.017100
     55 H11          0.3220    -1.6820    -2.6080 ha         1 LPQ       0.138000
     56 H12         -2.0610    -1.6230    -3.2900 ha         1 LPQ       0.122000
     57 H14          0.8750    -1.1070     1.6820 h1         1 LPQ       0.062200
     58 H14A         1.2270    -2.8370     1.7150 h1         1 LPQ       0.062200
     59 H18          3.2100    -1.6300     2.3440 h1         1 LPQ       0.048200
     60 H18A         3.4950    -2.4080     0.7790 h1         1 LPQ       0.048200
     61 H22          7.1610    -0.1730    -1.4340 ha         1 LPQ       0.132500
     62 H24          6.7990     1.7830     2.3600 ha         1 LPQ       0.132500
     63 H28          8.6540     2.1600    -0.3570 hc         1 LPQ       0.048033
     64 H28A         8.9630     1.6550     1.3000 hc         1 LPQ       0.048033
     65 H28B         9.2200     0.5290    -0.0330 hc         1 LPQ       0.048033
     66 H29         -3.9520     2.6830    -0.1700 h1         1 LPQ       0.073200
     67 H29A        -4.1950     2.6650     1.5610 h1         1 LPQ       0.073200
     68 H30         -3.6140    -0.4420     2.1750 h1         1 LPQ       0.088700
     69 H32         -1.9110     1.5820    -1.1390 ha         1 LPQ       0.129000
     70 H34          1.6240     1.7960     1.2420 ha         1 LPQ       0.141000
     71 H35          0.2530     2.3110     3.2180 ha         1 LPQ       0.126000
     72 H38          1.3710     0.4850    -1.1690 h1         1 LPQ       0.049700
     73 H38A         0.1350     1.2200    -2.1790 h1         1 LPQ       0.049700
     74 HN39         1.2280     3.3410    -1.7130 hn         1 LPQ       0.411000
     75 H40         -6.6700    -0.3700     1.6280 hc         1 LPQ       0.079450
     76 H40A        -5.7920    -1.4610     2.7880 hc         1 LPQ       0.079450
     77 H41         -4.9040     0.6120     3.9820 hc         1 LPQ       0.079450
     78 H41A        -5.8030     1.6450     2.7820 hc         1 LPQ       0.079450
     79 H42          3.3900     1.4560    -2.3150 h1         1 LPQ       0.096700
     80 H43          2.6970     4.2930    -3.3320 hc         1 LPQ       0.070950
     81 H43A         4.1790     3.3290    -3.7460 hc         1 LPQ       0.070950
     82 H44          2.6920     1.5050    -4.7090 hc         1 LPQ       0.070950
     83 H44A         1.2280     2.4940    -4.2690 hc         1 LPQ       0.070950
@<TRIPOS>BOND
     1     1     2 1   
     2     1     6 1   
     3     1    45 1   
     4     1    46 1   
     5     2     3 1   
     6     2    47 1   
     7     2    48 1   
     8     3     4 1   
     9     3    49 1   
    10     4     5 1   
    11     4    50 1   
    12     4    51 1   
    13     5     6 1   
    14     5    15 1   
    15     5    52 1   
    16     6     7 1   
    17     6    53 1   
    18     7     8 ar  
    19     7    12 ar  
    20     8     9 ar  
    21     8    54 1   
    22     9    10 ar  
    23    10    11 ar  
    24    10    13 1   
    25    11    12 ar  
    26    11    55 1   
    27    12    56 1   
    28    13    14 1   
    29    14    18 1   
    30    14    57 1   
    31    14    58 1   
    32    15    16 2   
    33    15    17 1   
    34    17    29 1   
    35    17    30 1   
    36    18    19 1   
    37    18    59 1   
    38    18    60 1   
    39    19    20 1   
    40    20    21 ar  
    41    20    25 ar  
    42    21    22 ar  
    43    21    26 1   
    44    22    23 ar  
    45    22    61 1   
    46    23    24 ar  
    47    23    28 1   
    48    24    25 ar  
    49    24    62 1   
    50    25    27 1   
    51    28    63 1   
    52    28    64 1   
    53    28    65 1   
    54    29    31 1   
    55    29    66 1   
    56    29    67 1   
    57    30    40 1   
    58    30    41 1   
    59    30    68 1   
    60    31    32 ar  
    61    31    36 ar  
    62    32    33 ar  
    63    32    69 1   
    64    33    34 ar  
    65    33    38 1   
    66    34    35 ar  
    67    34    70 1   
    68    35    36 ar  
    69    35    71 1   
    70    36    37 1   
    71    38    39 1   
    72    38    72 1   
    73    38    73 1   
    74    39    42 1   
    75    39    74 1   
    76    40    41 1   
    77    40    75 1   
    78    40    76 1   
    79    41    77 1   
    80    41    78 1   
    81    42    43 1   
    82    42    44 1   
    83    42    79 1   
    84    43    44 1   
    85    43    80 1   
    86    43    81 1   
    87    44    82 1   
    88    44    83 1   
@<TRIPOS>SUBSTRUCTURE
     1 LPQ         1 TEMP              0 ****  ****    0 ROOT
