@<TRIPOS>MOLECULE
LPR
   58    59     1     0     0
SMALL
bcc


@<TRIPOS>ATOM
      1 O2           2.2870     2.4820    -0.0440 o          1 LPR      -0.843300
      2 O3           1.0340     3.4920     1.4930 o          1 LPR      -0.843300
      3 C3           1.3940     2.5020     0.8210 c          1 LPR       0.931600
      4 C4           0.6300     1.1900     1.1370 c3         1 LPR       0.035500
      5 C14          0.9370     0.7610     2.5740 c3         1 LPR      -0.054400
      6 C15          0.1010    -0.4310     3.0560 c3         1 LPR      -0.057100
      7 C16          0.2490    -0.6520     4.5350 ca         1 LPR      -0.034300
      8 C17         -0.6590    -0.0990     5.4360 ca         1 LPR      -0.128000
      9 C18         -0.5010    -0.2690     6.8050 ca         1 LPR      -0.139000
     10 C19          0.5740    -0.9970     7.2990 ca         1 LPR      -0.160000
     11 C20          1.4860    -1.5530     6.4110 ca         1 LPR      -0.139000
     12 C21          1.3220    -1.3820     5.0430 ca         1 LPR      -0.128000
     13 HB          -0.4430     1.4500     1.1200 h1         1 LPR       0.022700
     14 H141         2.0020     0.5250     2.6760 hc         1 LPR       0.043200
     15 H142         0.7410     1.6130     3.2260 hc         1 LPR       0.043200
     16 H151        -0.9480    -0.2540     2.8050 hc         1 LPR       0.058200
     17 H152         0.3990    -1.3420     2.5300 hc         1 LPR       0.058200
     18 H17         -1.5040     0.4670     5.0610 ha         1 LPR       0.134000
     19 H18         -1.2220     0.1650     7.4870 ha         1 LPR       0.110000
     20 H19          0.6980    -1.1320     8.3650 ha         1 LPR       0.105000
     21 H20          2.3260    -2.1240     6.7850 ha         1 LPR       0.110000
     22 H21          2.0370    -1.8270     4.3600 ha         1 LPR       0.134000
     23 N1           0.9360     0.1170     0.2100 n7         1 LPR      -0.770200
     24 N3           4.8070    -2.1810    -4.8220 n8         1 LPR      -0.888800
     25 C1          -1.1880     0.1120    -1.0600 c          1 LPR       0.648100
     26 C2           0.3340     0.2820    -1.0910 c3         1 LPR       0.102500
     27 O1          -1.7140    -0.6440    -0.2470 o          1 LPR      -0.634100
     28 C10          0.8940    -0.7420    -2.0850 c3         1 LPR      -0.061400
     29 C11          2.3420    -0.4660    -2.4630 c3         1 LPR      -0.074400
     30 C12          2.8960    -1.4900    -3.4440 c3         1 LPR      -0.077400
     31 C13          4.3230    -1.1870    -3.8730 c3         1 LPR       0.141800
     32 H1           0.5890    -0.7570     0.5890 hn         1 LPR       0.333800
     33 H3N1         5.7430    -1.9360    -5.1200 hn         1 LPR       0.319300
     34 H3N2         4.9000    -3.0710    -4.3480 hn         1 LPR       0.319300
     35 HA           0.6000     1.2760    -1.4530 h1         1 LPR       0.088700
     36 H101         0.2740    -0.7550    -2.9860 hc         1 LPR       0.047200
     37 H102         0.8040    -1.7440    -1.6500 hc         1 LPR       0.047200
     38 H111         2.9530    -0.4390    -1.5580 hc         1 LPR       0.053200
     39 H112         2.4080     0.5350    -2.9040 hc         1 LPR       0.053200
     40 H121         2.2590    -1.5340    -4.3340 hc         1 LPR       0.036700
     41 H122         2.8600    -2.4880    -2.9910 hc         1 LPR       0.036700
     42 H131         4.9530    -1.0960    -2.9760 h1         1 LPR       0.026200
     43 H132         4.3460    -0.2080    -4.3620 h1         1 LPR       0.026200
     44 O4          -4.7240    -1.4350    -2.1270 o          1 LPR      -0.840800
     45 O5          -2.7170    -1.6260    -3.0880 o          1 LPR      -0.840800
     46 N2          -1.9130     0.7730    -1.9720 n          1 LPR      -0.447800
     47 C5          -3.3280     0.4710    -2.1410 c5         1 LPR      -0.025300
     48 C6          -3.7450     1.3570    -3.3260 c5         1 LPR      -0.077400
     49 C7          -2.6980     2.4650    -3.3550 c5         1 LPR      -0.099400
     50 C8          -1.4270     1.7340    -2.9510 c5         1 LPR       0.112000
     51 C9          -3.5990    -1.0120    -2.4640 c          1 LPR       0.938600
     52 H5          -3.8780     0.7610    -1.2400 h1         1 LPR       0.048700
     53 H6          -4.7630     1.7290    -3.2210 hc         1 LPR       0.035700
     54 H62         -3.6960     0.7880    -4.2580 hc         1 LPR       0.035700
     55 H7          -2.9310     3.2360    -2.6170 hc         1 LPR       0.025700
     56 H72         -2.6080     2.9480    -4.3280 hc         1 LPR       0.025700
     57 H8C1        -0.6830     2.4050    -2.5260 h1         1 LPR       0.038200
     58 H8C2        -0.9760     1.2310    -3.8130 h1         1 LPR       0.038200
@<TRIPOS>BOND
     1     1     3 1   
     2     2     3 1   
     3     3     4 1   
     4     4     5 1   
     5     4    13 1   
     6     4    23 1   
     7     5     6 1   
     8     5    14 1   
     9     5    15 1   
    10     6     7 1   
    11     6    16 1   
    12     6    17 1   
    13     7     8 ar  
    14     7    12 ar  
    15     8     9 ar  
    16     8    18 1   
    17     9    10 ar  
    18     9    19 1   
    19    10    11 ar  
    20    10    20 1   
    21    11    12 ar  
    22    11    21 1   
    23    12    22 1   
    24    23    26 1   
    25    23    32 1   
    26    24    31 1   
    27    24    33 1   
    28    24    34 1   
    29    25    26 1   
    30    25    27 2   
    31    25    46 1   
    32    26    28 1   
    33    26    35 1   
    34    28    29 1   
    35    28    36 1   
    36    28    37 1   
    37    29    30 1   
    38    29    38 1   
    39    29    39 1   
    40    30    31 1   
    41    30    40 1   
    42    30    41 1   
    43    31    42 1   
    44    31    43 1   
    45    44    51 1   
    46    45    51 1   
    47    46    47 1   
    48    46    50 1   
    49    47    48 1   
    50    47    51 1   
    51    47    52 1   
    52    48    49 1   
    53    48    53 1   
    54    48    54 1   
    55    49    50 1   
    56    49    55 1   
    57    49    56 1   
    58    50    57 1   
    59    50    58 1   
@<TRIPOS>SUBSTRUCTURE
     1 LPR         1 TEMP              0 ****  ****    0 ROOT
