@<TRIPOS>MOLECULE
LPR
   58    59     1     0     0
SMALL
No Charge or Current Charge


@<TRIPOS>ATOM
      1 O2           2.2020     2.8960     1.1490 o          1 LPR      -0.738000
      2 O3           0.3080     3.4590     0.3030 o          1 LPR      -0.738000
      3 C3           1.0350     2.6480     0.8650 c          1 LPR       0.721000
      4 C4           0.4150     1.2440     1.2660 c3         1 LPR       0.035500
      5 C14          0.8640     0.8050     2.6860 c3         1 LPR      -0.054400
      6 C15          0.0520    -0.3750     3.2730 c3         1 LPR      -0.057100
      7 C16          0.4690    -0.7020     4.7010 ca         1 LPR      -0.034300
      8 C17         -0.2300    -0.1470     5.7920 ca         1 LPR      -0.110000
      9 C18          0.1590    -0.4480     7.1090 ca         1 LPR      -0.121000
     10 C19          1.2480    -1.3030     7.3440 ca         1 LPR      -0.142000
     11 C20          1.9500    -1.8570     6.2600 ca         1 LPR      -0.121000
     12 C21          1.5620    -1.5570     4.9430 ca         1 LPR      -0.110000
     13 HB          -0.6700     1.4070     1.3230 h1         1 LPR       0.022700
     14 H141         1.9300     0.5440     2.6730 hc         1 LPR       0.043200
     15 H142         0.7590     1.6620     3.3630 hc         1 LPR       0.043200
     16 H151        -1.0160    -0.1280     3.2390 hc         1 LPR       0.058200
     17 H152         0.1800    -1.2610     2.6400 hc         1 LPR       0.058200
     18 H17         -1.0730     0.5180     5.6180 ha         1 LPR       0.116000
     19 H18         -0.3840    -0.0170     7.9470 ha         1 LPR       0.092000
     20 H19          1.5490    -1.5350     8.3630 ha         1 LPR       0.087000
     21 H20          2.7950    -2.5180     6.4410 ha         1 LPR       0.092000
     22 H21          2.1110    -1.9880     4.1090 ha         1 LPR       0.116000
     23 N1           0.6810     0.1290     0.2900 n7         1 LPR      -0.825400
     24 N3           4.9910    -2.1880    -4.4820 n8         1 LPR      -0.999200
     25 C1          -1.4460     0.2190    -1.1800 c          1 LPR       0.581100
     26 C2           0.1270     0.3200    -1.0930 c3         1 LPR       0.102500
     27 O1          -2.0930    -0.3950    -0.3330 o          1 LPR      -0.634100
     28 C10          0.7830    -0.6960    -2.0650 c3         1 LPR      -0.061400
     29 C11          2.2980    -0.4670    -2.2890 c3         1 LPR      -0.074400
     30 C12          2.9170    -1.4600    -3.2980 c3         1 LPR      -0.077400
     31 C13          4.4270    -1.2280    -3.5150 c3         1 LPR       0.141800
     32 H1           0.2580    -0.7260     0.6660 hn         1 LPR       0.389000
     33 H3N1         6.0060    -2.0440    -4.5430 hn         1 LPR       0.374500
     34 H3N2         4.9020    -3.1370    -4.0990 hn         1 LPR       0.374500
     35 HA           0.4000     1.3200    -1.4490 h1         1 LPR       0.088700
     36 H101         0.2780    -0.6360    -3.0370 hc         1 LPR       0.047200
     37 H102         0.6150    -1.7140    -1.6930 hc         1 LPR       0.047200
     38 H111         2.8260    -0.5550    -1.3310 hc         1 LPR       0.053200
     39 H112         2.4580     0.5570    -2.6480 hc         1 LPR       0.053200
     40 H121         2.3950    -1.3690    -4.2580 hc         1 LPR       0.036700
     41 H122         2.7560    -2.4840    -2.9380 hc         1 LPR       0.036700
     42 H131         4.9600    -1.3380    -2.5600 h1         1 LPR       0.026200
     43 H132         4.5950    -0.2100    -3.8920 h1         1 LPR       0.026200
     44 O4          -5.1460    -1.1150    -2.0550 o          1 LPR      -0.735500
     45 O5          -3.4330    -1.7000    -3.1920 o          1 LPR      -0.735500
     46 N2          -2.1080     0.8210    -2.2780 n          1 LPR      -0.380800
     47 C5          -3.5650     0.6370    -2.5510 c5         1 LPR      -0.025300
     48 C6          -3.6990     1.2870    -3.9600 c5         1 LPR      -0.077400
     49 C7          -2.7050     2.4670    -3.8550 c5         1 LPR      -0.099400
     50 C8          -1.4730     1.7980    -3.1910 c5         1 LPR       0.112000
     51 C9          -4.0870    -0.8440    -2.6060 c          1 LPR       0.728000
     52 H5          -4.1560     1.1880    -1.8080 h1         1 LPR       0.048700
     53 H6          -4.7230     1.6130    -4.1760 hc         1 LPR       0.035700
     54 H62         -3.3990     0.5980    -4.7580 hc         1 LPR       0.035700
     55 H7          -3.1090     3.2650    -3.2210 hc         1 LPR       0.025700
     56 H72         -2.4660     2.9100    -4.8290 hc         1 LPR       0.025700
     57 H8C1        -0.8600     2.5390    -2.6620 h1         1 LPR       0.038200
     58 H8C2        -0.8470     1.2850    -3.9330 h1         1 LPR       0.038200
@<TRIPOS>BOND
     1     1     3 1   
     2     2     3 1   
     3     3     4 1   
     4     4     5 1   
     5     4    13 1   
     6     4    23 1   
     7     5     6 1   
     8     5    14 1   
     9     5    15 1   
    10     6     7 1   
    11     6    16 1   
    12     6    17 1   
    13     7     8 ar  
    14     7    12 ar  
    15     8     9 ar  
    16     8    18 1   
    17     9    10 ar  
    18     9    19 1   
    19    10    11 ar  
    20    10    20 1   
    21    11    12 ar  
    22    11    21 1   
    23    12    22 1   
    24    23    26 1   
    25    23    32 1   
    26    24    31 1   
    27    24    33 1   
    28    24    34 1   
    29    25    26 1   
    30    25    27 2   
    31    25    46 1   
    32    26    28 1   
    33    26    35 1   
    34    28    29 1   
    35    28    36 1   
    36    28    37 1   
    37    29    30 1   
    38    29    38 1   
    39    29    39 1   
    40    30    31 1   
    41    30    40 1   
    42    30    41 1   
    43    31    42 1   
    44    31    43 1   
    45    44    51 1   
    46    45    51 1   
    47    46    47 1   
    48    46    50 1   
    49    47    48 1   
    50    47    51 1   
    51    47    52 1   
    52    48    49 1   
    53    48    53 1   
    54    48    54 1   
    55    49    50 1   
    56    49    55 1   
    57    49    56 1   
    58    50    57 1   
    59    50    58 1   
@<TRIPOS>SUBSTRUCTURE
     1 LPR         1 TEMP              0 ****  ****    0 ROOT
