@<TRIPOS>MOLECULE
LPS
   74    73     1     0     0
SMALL
bcc


@<TRIPOS>ATOM
      1 OT2          2.4550    -1.2530   -11.7370 o          1 LPS      -0.856800
      2 C            2.4780    -0.0570   -11.3830 c          1 LPS       0.928600
      3 OT1          2.5650     0.9390   -12.1270 o          1 LPS      -0.856800
      4 C12          2.3420     0.1950    -9.8630 c3         1 LPS       0.020500
      5 N            2.6720     1.5630    -9.5100 n8         1 LPS      -0.894800
      6 C11          0.9370    -0.2300    -9.4400 c3         1 LPS       0.168400
      7 O12          0.8190    -0.0840    -8.0310 os         1 LPS      -0.585200
      8 P           -0.6860     0.0400    -7.3990 p5         1 LPS       1.397800
      9 O13         -1.2980     1.3650    -7.7410 o          1 LPS      -0.844000
     10 O14         -1.4640    -1.2170    -7.6520 o          1 LPS      -0.844000
     11 O11         -0.1270     0.0610    -5.8540 os         1 LPS      -0.540200
     12 C1          -1.0790     0.0810    -4.8140 c3         1 LPS       0.176400
     13 C2          -0.3700    -0.1790    -3.4940 c3         1 LPS       0.138100
     14 O21          0.3250    -1.4030    -3.4950 oh         1 LPS      -0.570800
     15 C3          -1.3700    -0.0910    -2.3510 c3         1 LPS       0.096400
     16 O31         -0.6780    -0.2610    -1.1370 os         1 LPS      -0.428600
     17 C31         -1.4550    -0.1100     0.0190 c3         1 LPS       0.337900
     18 O32         -2.4500    -1.0870     0.1150 oh         1 LPS      -0.622800
     19 C32         -0.4990    -0.1190     1.2000 c3         1 LPS      -0.109400
     20 C33         -1.1950     0.0460     2.5450 c3         1 LPS      -0.071400
     21 C34         -0.2120     0.0550     3.7090 c3         1 LPS      -0.076400
     22 C35         -0.8940     0.1650     5.0670 c3         1 LPS      -0.074400
     23 C36          0.0860     0.1540     6.2330 c3         1 LPS      -0.074400
     24 C37         -0.5960     0.2100     7.5940 c3         1 LPS      -0.074400
     25 C38          0.3830     0.1920     8.7610 c3         1 LPS      -0.074400
     26 C39         -0.3030     0.2020    10.1220 c3         1 LPS      -0.074400
     27 C40          0.6740     0.1790    11.2910 c3         1 LPS      -0.074400
     28 C41         -0.0170     0.1610    12.6490 c3         1 LPS      -0.074400
     29 C42          0.9550     0.1390    13.8220 c3         1 LPS      -0.074400
     30 C43          0.2580     0.1030    15.1770 c3         1 LPS      -0.076400
     31 C44          1.2230     0.0820    16.3560 c3         1 LPS      -0.075400
     32 C45          0.5090     0.0410    17.7000 c3         1 LPS      -0.088100
     33 H12          3.0480    -0.4760    -9.3570 h1         1 LPS       0.045700
     34 HN1          2.2220     2.1850   -10.1700 hn         1 LPS       0.329800
     35 HN2          2.2940     1.7780    -8.5950 hn         1 LPS       0.329800
     36 H111         0.7570    -1.2690    -9.7280 h1         1 LPS       0.026200
     37 H112         0.2020     0.3970    -9.9610 h1         1 LPS       0.026200
     38 H11         -1.5910     1.0490    -4.7670 h1         1 LPS       0.014200
     39 H12A        -1.8510    -0.6850    -4.9700 h1         1 LPS       0.014200
     40 H2           0.3920     0.5950    -3.3490 h1         1 LPS       0.085700
     41 H21         -0.3060    -2.1150    -3.6450 ho         1 LPS       0.391000
     42 H31A        -1.8760     0.8840    -2.3790 h1         1 LPS       0.026700
     43 H32A        -2.1440    -0.8580    -2.4820 h1         1 LPS       0.026700
     44 H31         -2.0020     0.8440    -0.0170 h2         1 LPS       0.054700
     45 H32         -2.0360    -1.9360     0.3150 ho         1 LPS       0.405000
     46 H321         0.0700    -1.0570     1.1900 hc         1 LPS       0.057700
     47 H322         0.2280     0.6860     1.0640 hc         1 LPS       0.057700
     48 H331        -1.7740     0.9760     2.5500 hc         1 LPS       0.040200
     49 H332        -1.9160    -0.7630     2.6920 hc         1 LPS       0.040200
     50 H341         0.3890    -0.8610     3.6810 hc         1 LPS       0.038700
     51 H342         0.4940     0.8830     3.5860 hc         1 LPS       0.038700
     52 H351        -1.4930     1.0820     5.1030 hc         1 LPS       0.036200
     53 H352        -1.6020    -0.6630     5.1830 hc         1 LPS       0.036200
     54 H361         0.7040    -0.7500     6.1770 hc         1 LPS       0.037200
     55 H362         0.7780     0.9980     6.1350 hc         1 LPS       0.037200
     56 H371        -1.2170     1.1110     7.6550 hc         1 LPS       0.035700
     57 H372        -1.2850    -0.6370     7.6880 hc         1 LPS       0.035700
     58 H381         1.0210    -0.6960     8.6840 hc         1 LPS       0.037200
     59 H382         1.0560     1.0530     8.6840 hc         1 LPS       0.037200
     60 H391        -0.9430     1.0870    10.2010 hc         1 LPS       0.036200
     61 H392        -0.9730    -0.6620    10.1950 hc         1 LPS       0.036200
     62 H401         1.3240    -0.6980    11.2040 hc         1 LPS       0.036700
     63 H402         1.3350     1.0510    11.2290 hc         1 LPS       0.036700
     64 H411        -0.6700     1.0360    12.7360 hc         1 LPS       0.036700
     65 H412        -0.6750    -0.7130    12.7080 hc         1 LPS       0.036700
     66 H421         1.6140    -0.7320    13.7310 hc         1 LPS       0.036700
     67 H422         1.6070     1.0180    13.7710 hc         1 LPS       0.036700
     68 H431        -0.4050     0.9710    15.2680 hc         1 LPS       0.036700
     69 H432        -0.3930    -0.7780    15.2270 hc         1 LPS       0.036700
     70 H441         1.8860    -0.7840    16.2650 hc         1 LPS       0.036700
     71 H442         1.8690     0.9640    16.3090 hc         1 LPS       0.036700
     72 H451         1.2140     0.0280    18.5320 hc         1 LPS       0.029700
     73 H452        -0.1380     0.9110    17.8290 hc         1 LPS       0.029700
     74 H453        -0.1180    -0.8490    17.7840 hc         1 LPS       0.029700
@<TRIPOS>BOND
     1     1     2 1   
     2     2     3 1   
     3     2     4 1   
     4     4     5 1   
     5     4     6 1   
     6     4    33 1   
     7     5    34 1   
     8     5    35 1   
     9     6     7 1   
    10     6    36 1   
    11     6    37 1   
    12     7     8 1   
    13     8     9 1   
    14     8    10 1   
    15     8    11 1   
    16    11    12 1   
    17    12    13 1   
    18    12    38 1   
    19    12    39 1   
    20    13    14 1   
    21    13    15 1   
    22    13    40 1   
    23    14    41 1   
    24    15    16 1   
    25    15    42 1   
    26    15    43 1   
    27    16    17 1   
    28    17    18 1   
    29    17    19 1   
    30    17    44 1   
    31    18    45 1   
    32    19    20 1   
    33    19    46 1   
    34    19    47 1   
    35    20    21 1   
    36    20    48 1   
    37    20    49 1   
    38    21    22 1   
    39    21    50 1   
    40    21    51 1   
    41    22    23 1   
    42    22    52 1   
    43    22    53 1   
    44    23    24 1   
    45    23    54 1   
    46    23    55 1   
    47    24    25 1   
    48    24    56 1   
    49    24    57 1   
    50    25    26 1   
    51    25    58 1   
    52    25    59 1   
    53    26    27 1   
    54    26    60 1   
    55    26    61 1   
    56    27    28 1   
    57    27    62 1   
    58    27    63 1   
    59    28    29 1   
    60    28    64 1   
    61    28    65 1   
    62    29    30 1   
    63    29    66 1   
    64    29    67 1   
    65    30    31 1   
    66    30    68 1   
    67    30    69 1   
    68    31    32 1   
    69    31    70 1   
    70    31    71 1   
    71    32    72 1   
    72    32    73 1   
    73    32    74 1   
@<TRIPOS>SUBSTRUCTURE
     1 LPS         1 TEMP              0 ****  ****    0 ROOT
