@<TRIPOS>MOLECULE
LPS
   74    73     1     0     0
SMALL
No Charge or Current Charge


@<TRIPOS>ATOM
      1 OT2          0.1360    -1.8570   -10.9970 o          1 LPS      -0.751500
      2 C            0.0230    -0.6740   -10.7010 c          1 LPS       0.718000
      3 OT1         -0.0500     0.2140   -11.5420 o          1 LPS      -0.751500
      4 C12          0.0450    -0.2750    -9.1720 c3         1 LPS       0.020500
      5 N            1.2310     0.5480    -8.7030 n8         1 LPS      -1.005200
      6 C11         -1.3170     0.4060    -8.8270 c3         1 LPS       0.191600
      7 O12         -1.4070     0.8030    -7.4400 os         1 LPS      -0.608400
      8 P           -1.3270    -0.2430    -6.2110 p5         1 LPS       1.397800
      9 O13         -2.1120     0.2470    -5.0420 o          1 LPS      -0.844000
     10 O14         -1.7680    -1.6080    -6.6230 o          1 LPS      -0.844000
     11 O11          0.2630    -0.1870    -5.9360 os         1 LPS      -0.563400
     12 C1           0.8380     0.8890    -5.1710 c3         1 LPS       0.199600
     13 C2           1.3160     0.3370    -3.7960 c3         1 LPS       0.161300
     14 O21          1.9380    -0.9470    -4.0190 oh         1 LPS      -0.693000
     15 C3           0.1710     0.2110    -2.7520 c3         1 LPS       0.119600
     16 O31          0.7520    -0.0060    -1.4470 os         1 LPS      -0.475000
     17 C31         -0.1830    -0.1350    -0.3760 c3         1 LPS       0.384300
     18 O32         -0.8580    -1.3760    -0.5050 oh         1 LPS      -0.685000
     19 C32          0.6280    -0.1120     0.9390 c3         1 LPS      -0.109400
     20 C33         -0.2460    -0.1140     2.2170 c3         1 LPS      -0.071400
     21 C34          0.5870    -0.0470     3.5170 c3         1 LPS      -0.076400
     22 C35         -0.2840    -0.0490     4.7920 c3         1 LPS      -0.074400
     23 C36          0.5480     0.0170     6.0920 c3         1 LPS      -0.074400
     24 C37         -0.3220     0.0130     7.3680 c3         1 LPS      -0.074400
     25 C38          0.5090     0.0760     8.6670 c3         1 LPS      -0.074400
     26 C39         -0.3620     0.0710     9.9430 c3         1 LPS      -0.074400
     27 C40          0.4690     0.1330    11.2430 c3         1 LPS      -0.074400
     28 C41         -0.4030     0.1270    12.5180 c3         1 LPS      -0.074400
     29 C42          0.4280     0.1880    13.8180 c3         1 LPS      -0.074400
     30 C43         -0.4440     0.1800    15.0930 c3         1 LPS      -0.076400
     31 C44          0.3860     0.2410    16.3940 c3         1 LPS      -0.075400
     32 C45         -0.4840     0.2340    17.6660 c3         1 LPS      -0.088100
     33 H12          0.0890    -1.2240    -8.6210 h1         1 LPS       0.045700
     34 HN1          1.1690     1.4830    -9.1240 hn         1 LPS       0.385000
     35 HN2          1.0920     0.7170    -7.6980 hn         1 LPS       0.385000
     36 H111        -2.1330    -0.2850    -9.0770 h1         1 LPS       0.026200
     37 H112        -1.4420     1.2920    -9.4640 h1         1 LPS       0.026200
     38 H11          1.7040     1.2970    -5.7070 h1         1 LPS       0.014200
     39 H12A         0.1290     1.7140    -5.0210 h1         1 LPS       0.014200
     40 H2           2.0470     1.0520    -3.3930 h1         1 LPS       0.085700
     41 H21          1.5160    -1.2660    -4.8530 ho         1 LPS       0.490000
     42 H31A        -0.4190     1.1370    -2.7510 h1         1 LPS       0.026700
     43 H32A        -0.4920    -0.6180    -3.0330 h1         1 LPS       0.026700
     44 H31         -0.9120     0.6860    -0.3780 h2         1 LPS       0.054700
     45 H32         -0.1630    -2.0000    -0.7990 ho         1 LPS       0.444000
     46 H321         1.3120    -0.9690     0.9610 hc         1 LPS       0.057700
     47 H322         1.2510     0.7900     0.9430 hc         1 LPS       0.057700
     48 H331        -0.9330     0.7410     2.1840 hc         1 LPS       0.040200
     49 H332        -0.8630    -1.0210     2.2360 hc         1 LPS       0.040200
     50 H341         1.2750    -0.9010     3.5480 hc         1 LPS       0.038700
     51 H342         1.2030     0.8610     3.5030 hc         1 LPS       0.038700
     52 H351        -0.9710     0.8050     4.7610 hc         1 LPS       0.036200
     53 H352        -0.9000    -0.9570     4.8060 hc         1 LPS       0.036200
     54 H361         1.2360    -0.8380     6.1230 hc         1 LPS       0.037200
     55 H362         1.1650     0.9240     6.0800 hc         1 LPS       0.037200
     56 H371        -1.0100     0.8680     7.3370 hc         1 LPS       0.035700
     57 H372        -0.9400    -0.8940     7.3790 hc         1 LPS       0.035700
     58 H381         1.1960    -0.7780     8.6980 hc         1 LPS       0.037200
     59 H382         1.1260     0.9840     8.6560 hc         1 LPS       0.037200
     60 H391        -1.0490     0.9260     9.9130 hc         1 LPS       0.036200
     61 H392        -0.9800    -0.8360     9.9530 hc         1 LPS       0.036200
     62 H401         1.1560    -0.7220    11.2720 hc         1 LPS       0.036700
     63 H402         1.0860     1.0410    11.2330 hc         1 LPS       0.036700
     64 H411        -1.0900     0.9820    12.4890 hc         1 LPS       0.036700
     65 H412        -1.0200    -0.7800    12.5270 hc         1 LPS       0.036700
     66 H421         1.1150    -0.6670    13.8470 hc         1 LPS       0.036700
     67 H422         1.0450     1.0950    13.8090 hc         1 LPS       0.036700
     68 H431        -1.1310     1.0350    15.0640 hc         1 LPS       0.036700
     69 H432        -1.0610    -0.7270    15.1020 hc         1 LPS       0.036700
     70 H441         1.0730    -0.6140    16.4270 hc         1 LPS       0.036700
     71 H442         1.0040     1.1480    16.3900 hc         1 LPS       0.036700
     72 H451         0.1480     0.2780    18.5610 hc         1 LPS       0.029700
     73 H452        -1.1580     1.0990    17.6800 hc         1 LPS       0.029700
     74 H453        -1.0890    -0.6790    17.7170 hc         1 LPS       0.029700
@<TRIPOS>BOND
     1     1     2 1   
     2     2     3 1   
     3     2     4 1   
     4     4     5 1   
     5     4     6 1   
     6     4    33 1   
     7     5    34 1   
     8     5    35 1   
     9     6     7 1   
    10     6    36 1   
    11     6    37 1   
    12     7     8 1   
    13     8     9 1   
    14     8    10 1   
    15     8    11 1   
    16    11    12 1   
    17    12    13 1   
    18    12    38 1   
    19    12    39 1   
    20    13    14 1   
    21    13    15 1   
    22    13    40 1   
    23    14    41 1   
    24    15    16 1   
    25    15    42 1   
    26    15    43 1   
    27    16    17 1   
    28    17    18 1   
    29    17    19 1   
    30    17    44 1   
    31    18    45 1   
    32    19    20 1   
    33    19    46 1   
    34    19    47 1   
    35    20    21 1   
    36    20    48 1   
    37    20    49 1   
    38    21    22 1   
    39    21    50 1   
    40    21    51 1   
    41    22    23 1   
    42    22    52 1   
    43    22    53 1   
    44    23    24 1   
    45    23    54 1   
    46    23    55 1   
    47    24    25 1   
    48    24    56 1   
    49    24    57 1   
    50    25    26 1   
    51    25    58 1   
    52    25    59 1   
    53    26    27 1   
    54    26    60 1   
    55    26    61 1   
    56    27    28 1   
    57    27    62 1   
    58    27    63 1   
    59    28    29 1   
    60    28    64 1   
    61    28    65 1   
    62    29    30 1   
    63    29    66 1   
    64    29    67 1   
    65    30    31 1   
    66    30    68 1   
    67    30    69 1   
    68    31    32 1   
    69    31    70 1   
    70    31    71 1   
    71    32    72 1   
    72    32    73 1   
    73    32    74 1   
@<TRIPOS>SUBSTRUCTURE
     1 LPS         1 TEMP              0 ****  ****    0 ROOT
