@<TRIPOS>MOLECULE
LPU
   24    24     1     0     0
SMALL
No Charge or Current Charge


@<TRIPOS>ATOM
      1 N1          67.5450     3.0040    82.8060 n3         1 LPU      -0.753500
      2 C4          66.1660     0.6290    84.0780 c6         1 LPU       0.176300
      3 C5          65.4630     1.6170    83.1060 c6         1 LPU      -0.111900
      4 C6          66.4680     2.2390    82.1100 c6         1 LPU       0.214800
      5 C1          65.9740     5.2450    83.2800 c3         1 LPU      -0.380100
      6 S1          67.5390     4.7130    82.6050 s6         1 LPU       1.207100
      7 O1          68.6190     5.2350    83.4490 o          1 LPU      -0.532500
      8 O2          67.5740     4.9660    81.1620 o          1 LPU      -0.532500
      9 C2          67.8870     2.5070    84.1690 c6         1 LPU       0.214800
     10 C3          67.6640     0.9840    84.2840 c6         1 LPU      -0.111900
     11 O3          66.0490    -0.7110    83.5890 oh         1 LPU      -0.656000
     12 H1          65.6530     0.7060    85.0490 h1         1 LPU       0.031700
     13 H2          64.9850     2.4190    83.6840 hc         1 LPU       0.060700
     14 H3          64.6530     1.1140    82.5610 hc         1 LPU       0.060700
     15 H4          65.9270     2.8660    81.3860 h1         1 LPU       0.062200
     16 H5          66.9190     1.4230    81.5270 h1         1 LPU       0.062200
     17 H6          65.9320     4.9200    84.3240 h1         1 LPU       0.098367
     18 H7          65.9410     6.3370    83.2050 h1         1 LPU       0.098367
     19 H8          65.1770     4.7870    82.6860 h1         1 LPU       0.098367
     20 H9          68.9360     2.7370    84.4060 h1         1 LPU       0.062200
     21 H10         67.2700     3.0070    84.9310 h1         1 LPU       0.062200
     22 H11         68.0020     0.6280    85.2670 hc         1 LPU       0.060700
     23 H12         68.2900     0.4770    83.5360 hc         1 LPU       0.060700
     24 H13         66.4220    -1.2980    84.2830 ho         1 LPU       0.446000
@<TRIPOS>BOND
     1     1     4 1   
     2     1     6 1   
     3     1     9 1   
     4     2     3 1   
     5     2    10 1   
     6     2    11 1   
     7     2    12 1   
     8     3     4 1   
     9     3    13 1   
    10     3    14 1   
    11     4    15 1   
    12     4    16 1   
    13     5     6 1   
    14     5    17 1   
    15     5    18 1   
    16     5    19 1   
    17     6     7 2   
    18     6     8 2   
    19     9    10 1   
    20     9    20 1   
    21     9    21 1   
    22    10    22 1   
    23    10    23 1   
    24    11    24 1   
@<TRIPOS>SUBSTRUCTURE
     1 LPU         1 TEMP              0 ****  ****    0 ROOT
