@<TRIPOS>MOLECULE
LPU
   24    24     1     0     0
SMALL
bcc


@<TRIPOS>ATOM
      1 N1          67.4490     2.9980    82.8760 n3         1 LPU      -0.753500
      2 C4          66.1670     0.5940    84.0670 c6         1 LPU       0.153100
      3 C5          65.4770     1.5470    83.0880 c6         1 LPU      -0.111900
      4 C6          66.4650     2.1940    82.1330 c6         1 LPU       0.214800
      5 C1          66.0640     5.3390    83.3170 c3         1 LPU      -0.269300
      6 S1          67.5190     4.6120    82.5860 s6         1 LPU       1.237900
      7 O1          68.6790     5.1260    83.3010 o          1 LPU      -0.603300
      8 O2          67.4340     4.8090    81.1460 o          1 LPU      -0.603300
      9 C2          67.7780     2.5400    84.2340 c6         1 LPU       0.214800
     10 C3          67.6200     1.0300    84.2870 c6         1 LPU      -0.111900
     11 O3          66.0960    -0.7150    83.5400 oh         1 LPU      -0.593800
     12 H1          65.6360     0.6450    85.0270 h1         1 LPU       0.031700
     13 H2          64.9580     2.3290    83.6470 hc         1 LPU       0.060700
     14 H3          64.7110     1.0110    82.5240 hc         1 LPU       0.060700
     15 H4          65.9390     2.8210    81.4140 h1         1 LPU       0.062200
     16 H5          66.9930     1.4370    81.5500 h1         1 LPU       0.062200
     17 H6          66.0510     5.1300    84.3850 h1         1 LPU       0.098367
     18 H7          66.1030     6.4150    83.1520 h1         1 LPU       0.098367
     19 H8          65.1750     4.9270    82.8440 h1         1 LPU       0.098367
     20 H9          68.8050     2.8120    84.4670 h1         1 LPU       0.062200
     21 H10         67.1330     3.0050    84.9910 h1         1 LPU       0.062200
     22 H11         67.9910     0.6720    85.2490 hc         1 LPU       0.060700
     23 H12         68.2530     0.5810    83.5160 hc         1 LPU       0.060700
     24 H13         66.5590    -1.3070    84.1410 ho         1 LPU       0.407000
@<TRIPOS>BOND
     1     1     4 1   
     2     1     6 1   
     3     1     9 1   
     4     2     3 1   
     5     2    10 1   
     6     2    11 1   
     7     2    12 1   
     8     3     4 1   
     9     3    13 1   
    10     3    14 1   
    11     4    15 1   
    12     4    16 1   
    13     5     6 1   
    14     5    17 1   
    15     5    18 1   
    16     5    19 1   
    17     6     7 2   
    18     6     8 2   
    19     9    10 1   
    20     9    20 1   
    21     9    21 1   
    22    10    22 1   
    23    10    23 1   
    24    11    24 1   
@<TRIPOS>SUBSTRUCTURE
     1 LPU         1 TEMP              0 ****  ****    0 ROOT
