@<TRIPOS>MOLECULE
LPV
   63    64     1     0     0
SMALL
No Charge or Current Charge


@<TRIPOS>ATOM
      1 N1          27.6550    -7.0970    -2.0420 ns         1 LPV      -0.486900
      2 C4          29.3970    -2.8970    -2.2370 c3         1 LPV      -0.079100
      3 C5          27.2170    -9.2250    -0.8570 c3         1 LPV      -0.047100
      4 C6          27.4900    -8.5430    -2.2220 c3         1 LPV       0.114700
      5 C7          28.7090    -9.1320    -2.9750 c3         1 LPV      -0.102400
      6 C8          28.5490   -10.6140    -3.3690 c3         1 LPV       0.168600
      7 C10         24.7680    -8.6100    -0.5370 ca         1 LPV      -0.105500
      8 C13         25.3400    -7.2500     1.8530 ca         1 LPV      -0.105000
      9 C15         29.8700   -12.2540    -4.6510 ca         1 LPV       0.139100
     10 C17         29.1500   -14.5590    -5.0020 ca         1 LPV      -0.071500
     11 C20         31.0330   -12.5170    -5.3930 ca         1 LPV      -0.169000
     12 C22         29.6380   -16.5100    -7.5510 c3         1 LPV      -0.071400
     13 C24         28.9710   -15.9110    -9.9640 c3         1 LPV      -0.089100
     14 C23         29.8610   -15.5660    -8.7550 c3         1 LPV      -0.076400
     15 C18         30.3160   -14.8210    -5.7470 ca         1 LPV      -0.111300
     16 C19         31.2580   -13.7920    -5.9390 ca         1 LPV      -0.071500
     17 C16         28.9240   -13.2840    -4.4560 ca         1 LPV      -0.169000
     18 O3          29.7040   -10.9830    -4.1410 os         1 LPV      -0.348100
     19 C1          27.3460    -6.1450    -2.9900 c          1 LPV       0.559100
     20 O1          26.8910    -6.4420    -4.0890 o          1 LPV      -0.614100
     21 C2          27.5450    -4.6660    -2.5470 c3         1 LPV       0.051300
     22 O2          26.4460    -3.8190    -2.9900 oh         1 LPV      -0.650000
     23 C3          28.9160    -4.1140    -3.0550 c3         1 LPV       0.158500
     24 N2          28.8870    -3.7630    -4.4930 n8         1 LPV      -1.006200
     25 C9          26.0950    -8.5560    -0.0670 ca         1 LPV      -0.084300
     26 C11         23.7340    -7.9880     0.1820 ca         1 LPV      -0.105000
     27 C12         24.0190    -7.3070     1.3770 ca         1 LPV      -0.106000
     28 C14         26.3750    -7.8730     1.1340 ca         1 LPV      -0.105500
     29 H1          27.9850    -6.7640    -1.1440 hn         1 LPV       0.318500
     30 H2          29.4970    -3.1610    -1.1770 hc         1 LPV       0.044033
     31 H3          30.3760    -2.5530    -2.5910 hc         1 LPV       0.044033
     32 H4          28.6890    -2.0630    -2.3160 hc         1 LPV       0.044033
     33 H5          26.9580   -10.2780    -1.0220 hc         1 LPV       0.055200
     34 H6          28.1440    -9.2300    -0.2690 hc         1 LPV       0.055200
     35 H7          26.6010    -8.6980    -2.8490 h1         1 LPV       0.084700
     36 H8          29.6090    -9.0160    -2.3610 hc         1 LPV       0.064200
     37 H9          28.8730    -8.5510    -3.8910 hc         1 LPV       0.064200
     38 H10         27.6330   -10.7390    -3.9610 h1         1 LPV       0.034700
     39 H11         28.4770   -11.2350    -2.4670 h1         1 LPV       0.034700
     40 H12         24.5370    -9.1360    -1.4620 ha         1 LPV       0.108000
     41 H13         25.5620    -6.7240     2.7790 ha         1 LPV       0.115000
     42 H14         28.4150   -15.3470    -4.8470 ha         1 LPV       0.111000
     43 H15         31.7630   -11.7260    -5.5460 ha         1 LPV       0.120000
     44 H16         30.3790   -16.9680    -5.5720 hc         1 LPV       0.044700
     45 H17         31.5990   -16.3200    -6.6480 hc         1 LPV       0.044700
     46 H18         28.5890   -16.4550    -7.2350 hc         1 LPV       0.038200
     47 H19         29.8160   -17.5440    -7.8710 hc         1 LPV       0.038200
     48 H20         29.1620   -15.2160   -10.7900 hc         1 LPV       0.031033
     49 H21         29.1740   -16.9290   -10.3180 hc         1 LPV       0.031033
     50 H22         27.9090   -15.8420    -9.6970 hc         1 LPV       0.031033
     51 H23         30.9130   -15.6090    -9.0620 hc         1 LPV       0.040200
     52 H24         29.6580   -14.5310    -8.4530 hc         1 LPV       0.040200
     53 H25         32.1620   -13.9780    -6.5140 ha         1 LPV       0.111000
     54 H26         28.0140   -13.1150    -3.8870 ha         1 LPV       0.120000
     55 H27         27.5760    -4.6770    -1.4490 h1         1 LPV       0.072700
     56 H28         26.0640    -4.2500    -3.7900 ho         1 LPV       0.473000
     57 H29         29.6660    -4.9080    -2.9240 h1         1 LPV       0.046700
     58 H30         28.5400    -4.5710    -5.0240 hn         1 LPV       0.405500
     59 H31         28.1500    -3.0620    -4.6280 hn         1 LPV       0.405500
     60 H33         22.7110    -8.0330    -0.1870 ha         1 LPV       0.115000
     61 H34         23.2190    -6.8240     1.9340 ha         1 LPV       0.115000
     62 H35         27.3940    -7.8230     1.5120 ha         1 LPV       0.108000
     63 C21         30.5520   -16.2050    -6.3420 c3         1 LPV      -0.024100
@<TRIPOS>BOND
     1     1     4 1   
     2     1    19 1   
     3     1    29 1   
     4     2    23 1   
     5     2    30 1   
     6     2    31 1   
     7     2    32 1   
     8     3     4 1   
     9     3    25 1   
    10     3    33 1   
    11     3    34 1   
    12     4     5 1   
    13     4    35 1   
    14     5     6 1   
    15     5    36 1   
    16     5    37 1   
    17     6    18 1   
    18     6    38 1   
    19     6    39 1   
    20     7    25 ar  
    21     7    26 ar  
    22     7    40 1   
    23     8    27 ar  
    24     8    28 ar  
    25     8    41 1   
    26     9    11 ar  
    27     9    17 ar  
    28     9    18 1   
    29    10    15 ar  
    30    10    17 ar  
    31    10    42 1   
    32    11    16 ar  
    33    11    43 1   
    34    12    14 1   
    35    12    46 1   
    36    12    47 1   
    37    12    63 1   
    38    13    14 1   
    39    13    48 1   
    40    13    49 1   
    41    13    50 1   
    42    14    51 1   
    43    14    52 1   
    44    15    16 ar  
    45    15    63 1   
    46    16    53 1   
    47    17    54 1   
    48    19    20 2   
    49    19    21 1   
    50    21    22 1   
    51    21    23 1   
    52    21    55 1   
    53    22    56 1   
    54    23    24 1   
    55    23    57 1   
    56    24    58 1   
    57    24    59 1   
    58    25    28 ar  
    59    26    27 ar  
    60    26    60 1   
    61    27    61 1   
    62    28    62 1   
    63    44    63 1   
    64    45    63 1   
@<TRIPOS>SUBSTRUCTURE
     1 LPV         1 TEMP              0 ****  ****    0 ROOT
