@<TRIPOS>MOLECULE
LPV
   63    64     1     0     0
SMALL
abcg2


@<TRIPOS>ATOM
      1 N1          27.6970    -6.9970    -2.0770 ns         1 LPV      -0.486900
      2 C4          29.2250    -2.8490    -2.2870 c3         1 LPV      -0.079100
      3 C5          27.4300    -9.1210    -0.9230 c3         1 LPV      -0.047100
      4 C6          27.5900    -8.4290    -2.2800 c3         1 LPV       0.114700
      5 C7          28.7920    -8.9440    -3.0760 c3         1 LPV      -0.102400
      6 C8          28.6660   -10.4120    -3.4340 c3         1 LPV       0.168600
      7 C10         24.9460    -9.0860    -0.5550 ca         1 LPV      -0.105500
      8 C13         25.1870    -7.3180     1.5640 ca         1 LPV      -0.105000
      9 C15         29.8380   -12.0130    -4.7440 ca         1 LPV       0.139100
     10 C17         29.1610   -14.3160    -4.9120 ca         1 LPV      -0.071500
     11 C20         30.9310   -12.3010    -5.5610 ca         1 LPV      -0.169000
     12 C22         29.4830   -16.3620    -7.4110 c3         1 LPV      -0.071400
     13 C24         28.7560   -15.9220    -9.7970 c3         1 LPV      -0.089100
     14 C23         29.6930   -15.5240    -8.6650 c3         1 LPV      -0.076400
     15 C18         30.2450   -14.6220    -5.7270 ca         1 LPV      -0.111300
     16 C19         31.1230   -13.5850    -6.0410 ca         1 LPV      -0.071500
     17 C16         28.9470   -13.0340    -4.4200 ca         1 LPV      -0.169000
     18 O3          29.7240   -10.7370    -4.3160 os         1 LPV      -0.348100
     19 C1          27.1810    -6.0810    -2.9020 c          1 LPV       0.559100
     20 O1          26.5280    -6.3500    -3.9030 o          1 LPV      -0.614100
     21 C2          27.4580    -4.6210    -2.5470 c3         1 LPV       0.051300
     22 O2          26.6830    -3.7990    -3.3710 oh         1 LPV      -0.650000
     23 C3          28.9620    -4.2950    -2.6870 c3         1 LPV       0.158500
     24 N2          29.5090    -4.5440    -4.0100 n8         1 LPV      -1.006200
     25 C9          26.2140    -8.6510    -0.1730 ca         1 LPV      -0.084300
     26 C11         23.8120    -8.6430     0.1100 ca         1 LPV      -0.105000
     27 C12         23.9290    -7.7550     1.1730 ca         1 LPV      -0.106000
     28 C14         26.3190    -7.7640     0.8940 ca         1 LPV      -0.105500
     29 H1          28.2330    -6.6830    -1.2810 hn         1 LPV       0.318500
     30 H2          28.8410    -2.6390    -1.2880 hc         1 LPV       0.044033
     31 H3          30.2950    -2.6470    -2.2880 hc         1 LPV       0.044033
     32 H4          28.7510    -2.1540    -2.9820 hc         1 LPV       0.044033
     33 H5          27.3560   -10.1970    -1.0870 hc         1 LPV       0.055200
     34 H6          28.3330    -8.9600    -0.3250 hc         1 LPV       0.055200
     35 H7          26.6830    -8.6040    -2.8650 h1         1 LPV       0.084700
     36 H8          29.7090    -8.7720    -2.5060 hc         1 LPV       0.064200
     37 H9          28.8660    -8.3600    -3.9970 hc         1 LPV       0.064200
     38 H10         27.6950   -10.6010    -3.9090 h1         1 LPV       0.034700
     39 H11         28.7200   -11.0400    -2.5380 h1         1 LPV       0.034700
     40 H12         24.8460    -9.7820    -1.3800 ha         1 LPV       0.108000
     41 H13         25.2890    -6.6280     2.3920 ha         1 LPV       0.115000
     42 H14         28.4580   -15.0980    -4.6450 ha         1 LPV       0.111000
     43 H15         31.6290   -11.5120    -5.8140 ha         1 LPV       0.120000
     44 H16         30.2910   -16.7370    -5.4570 hc         1 LPV       0.044700
     45 H17         31.4680   -16.1370    -6.6060 hc         1 LPV       0.044700
     46 H18         28.4490   -16.2550    -7.0670 hc         1 LPV       0.038200
     47 H19         29.6110   -17.4200    -7.6600 hc         1 LPV       0.038200
     48 H20         28.9220   -15.3130   -10.6860 hc         1 LPV       0.031033
     49 H21         28.8980   -16.9660   -10.0800 hc         1 LPV       0.031033
     50 H22         27.7110   -15.8010    -9.5040 hc         1 LPV       0.031033
     51 H23         30.7320   -15.6240    -8.9950 hc         1 LPV       0.040200
     52 H24         29.5520   -14.4650    -8.4300 hc         1 LPV       0.040200
     53 H25         31.9800   -13.7870    -6.6730 ha         1 LPV       0.111000
     54 H26         28.0880   -12.8550    -3.7880 ha         1 LPV       0.120000
     55 H27         27.1700    -4.4650    -1.4980 h1         1 LPV       0.072700
     56 H28         26.3130    -4.3710    -4.0600 ho         1 LPV       0.473000
     57 H29         29.5030    -4.9380    -1.9850 h1         1 LPV       0.046700
     58 H30         29.4810    -5.5300    -4.2380 hn         1 LPV       0.405500
     59 H31         28.9540    -4.0660    -4.7100 hn         1 LPV       0.405500
     60 H33         22.8350    -8.9930    -0.1990 ha         1 LPV       0.115000
     61 H34         23.0450    -7.4100     1.6940 ha         1 LPV       0.115000
     62 H35         27.2980    -7.4210     1.2090 ha         1 LPV       0.108000
     63 C21         30.4360   -16.0140    -6.2640 c3         1 LPV      -0.024100
@<TRIPOS>BOND
     1     1     4 1   
     2     1    19 1   
     3     1    29 1   
     4     2    23 1   
     5     2    30 1   
     6     2    31 1   
     7     2    32 1   
     8     3     4 1   
     9     3    25 1   
    10     3    33 1   
    11     3    34 1   
    12     4     5 1   
    13     4    35 1   
    14     5     6 1   
    15     5    36 1   
    16     5    37 1   
    17     6    18 1   
    18     6    38 1   
    19     6    39 1   
    20     7    25 ar  
    21     7    26 ar  
    22     7    40 1   
    23     8    27 ar  
    24     8    28 ar  
    25     8    41 1   
    26     9    11 ar  
    27     9    17 ar  
    28     9    18 1   
    29    10    15 ar  
    30    10    17 ar  
    31    10    42 1   
    32    11    16 ar  
    33    11    43 1   
    34    12    14 1   
    35    12    46 1   
    36    12    47 1   
    37    12    63 1   
    38    13    14 1   
    39    13    48 1   
    40    13    49 1   
    41    13    50 1   
    42    14    51 1   
    43    14    52 1   
    44    15    16 ar  
    45    15    63 1   
    46    16    53 1   
    47    17    54 1   
    48    19    20 2   
    49    19    21 1   
    50    21    22 1   
    51    21    23 1   
    52    21    55 1   
    53    22    56 1   
    54    23    24 1   
    55    23    57 1   
    56    24    58 1   
    57    24    59 1   
    58    25    28 ar  
    59    26    27 ar  
    60    26    60 1   
    61    27    61 1   
    62    28    62 1   
    63    44    63 1   
    64    45    63 1   
@<TRIPOS>SUBSTRUCTURE
     1 LPV         1 TEMP              0 ****  ****    0 ROOT
