@<TRIPOS>MOLECULE
LPW
   47    49     1     0     0
SMALL
No Charge or Current Charge


@<TRIPOS>ATOM
      1 O3          -4.6260    -1.9690    -2.3530 o          1 LPW      -0.553100
      2 C24         -3.8870    -1.8730    -1.3810 c          1 LPW       0.619100
      3 N1          -4.1030    -2.5840    -0.2060 ns         1 LPW      -0.367400
      4 ON1         -5.3520    -3.2790     0.0240 oh         1 LPW      -0.421100
      5 C23         -2.6600    -0.9520    -1.3730 c3         1 LPW      -0.135100
      6 C22         -3.0730     0.4990    -1.1000 ca         1 LPW       0.032700
      7 C21         -3.6370     1.2070    -2.1820 ca         1 LPW      -0.113000
      8 C20         -4.0410     2.5430    -2.0470 ca         1 LPW      -0.054000
      9 C19         -3.8820     3.1960    -0.8200 ca         1 LPW      -0.124000
     10 C18         -3.3200     2.5160     0.2700 ca         1 LPW      -0.023000
     11 C17         -2.9120     1.1650     0.1530 ca         1 LPW      -0.244500
     12 S1          -2.1750     0.3740     1.6180 sy         1 LPW       1.017000
     13 OSB         -2.2380     1.3340     2.7290 o          1 LPW      -0.524000
     14 OSA         -2.7450    -0.9720     1.7640 o          1 LPW      -0.524000
     15 C13         -0.4350     0.1910     1.1710 ca         1 LPW      -0.271500
     16 C12          0.1950    -1.0690     1.2140 ca         1 LPW      -0.015500
     17 C11          1.5470    -1.1900     0.8530 ca         1 LPW      -0.127000
     18 C10          2.3040    -0.0640     0.4440 cp         1 LPW       0.039000
     19 C15          1.6520     1.1930     0.4140 ca         1 LPW      -0.127000
     20 C14          0.3000     1.3230     0.7720 ca         1 LPW      -0.015500
     21 C4           3.7460    -0.1990     0.0590 cp         1 LPW      -0.096000
     22 C3           4.2190    -1.3530    -0.6140 ca         1 LPW      -0.052500
     23 C2           5.5720    -1.4770    -0.9750 ca         1 LPW      -0.176000
     24 C1           6.4860    -0.4570    -0.6750 ca         1 LPW       0.156100
     25 OA           7.8000    -0.6350    -1.0540 os         1 LPW      -0.338100
     26 C8           8.8150     0.3520    -0.7930 c3         1 LPW       0.147900
     27 C6           6.0360     0.7000    -0.0050 ca         1 LPW      -0.176000
     28 C5           4.6820     0.8240     0.3550 ca         1 LPW      -0.052500
     29 H1          -3.5890    -2.3000     0.6310 hn         1 LPW       0.325500
     30 H2          -5.0660    -4.1610     0.3590 ho         1 LPW       0.442000
     31 H3          -1.9370    -1.3090    -0.6380 hc         1 LPW       0.069200
     32 H4          -2.1920    -1.0050    -2.3620 hc         1 LPW       0.069200
     33 H5          -3.7660     0.7160    -3.1430 ha         1 LPW       0.117000
     34 H6          -4.4750     3.0700    -2.8940 ha         1 LPW       0.119000
     35 H7          -4.1920     4.2330    -0.7120 ha         1 LPW       0.121000
     36 H8          -3.2070     3.0550     1.2090 ha         1 LPW       0.143000
     37 H9          -0.3530    -1.9560     1.5280 ha         1 LPW       0.130000
     38 H10          2.0160    -2.1690     0.9050 ha         1 LPW       0.120000
     39 H11          2.1950     2.0780     0.0940 ha         1 LPW       0.120000
     40 H12         -0.1730     2.3030     0.7330 ha         1 LPW       0.130000
     41 H13          3.5310    -2.1540    -0.8720 ha         1 LPW       0.116000
     42 H14          5.9130    -2.3690    -1.4940 ha         1 LPW       0.125500
     43 H15          9.7840     0.0100    -1.1770 h1         1 LPW       0.043367
     44 H16          8.5700     1.3020    -1.2850 h1         1 LPW       0.043367
     45 H17          8.9190     0.5280     0.2850 h1         1 LPW       0.043367
     46 H18          6.7170     1.5080     0.2460 ha         1 LPW       0.125500
     47 H19          4.3600     1.7190     0.8830 ha         1 LPW       0.116000
@<TRIPOS>BOND
     1     1     2 2   
     2     2     3 1   
     3     2     5 1   
     4     3     4 1   
     5     3    29 1   
     6     4    30 1   
     7     5     6 1   
     8     5    31 1   
     9     5    32 1   
    10     6     7 ar  
    11     6    11 ar  
    12     7     8 ar  
    13     7    33 1   
    14     8     9 ar  
    15     8    34 1   
    16     9    10 ar  
    17     9    35 1   
    18    10    11 ar  
    19    10    36 1   
    20    11    12 1   
    21    12    13 2   
    22    12    14 2   
    23    12    15 1   
    24    15    16 ar  
    25    15    20 ar  
    26    16    17 ar  
    27    16    37 1   
    28    17    18 ar  
    29    17    38 1   
    30    18    19 ar  
    31    18    21 1   
    32    19    20 ar  
    33    19    39 1   
    34    20    40 1   
    35    21    22 ar  
    36    21    28 ar  
    37    22    23 ar  
    38    22    41 1   
    39    23    24 ar  
    40    23    42 1   
    41    24    25 1   
    42    24    27 ar  
    43    25    26 1   
    44    26    43 1   
    45    26    44 1   
    46    26    45 1   
    47    27    28 ar  
    48    27    46 1   
    49    28    47 1   
@<TRIPOS>SUBSTRUCTURE
     1 LPW         1 TEMP              0 ****  ****    0 ROOT
