@<TRIPOS>MOLECULE
LPW
   47    49     1     0     0
SMALL
abcg2


@<TRIPOS>ATOM
      1 O3          -5.1370    -1.4280    -0.4580 o          1 LPW      -0.553100
      2 C24         -3.9860    -1.7920    -0.5880 c          1 LPW       0.619100
      3 N1          -3.5440    -3.0230    -0.2610 ns         1 LPW      -0.367400
      4 ON1         -4.3490    -3.8420     0.4750 oh         1 LPW      -0.421100
      5 C23         -2.9260    -0.9400    -1.2660 c3         1 LPW      -0.135100
      6 C22         -3.2140     0.5270    -1.1290 ca         1 LPW       0.032700
      7 C21         -3.8520     1.1750    -2.1800 ca         1 LPW      -0.113000
      8 C20         -4.1540     2.5280    -2.1290 ca         1 LPW      -0.054000
      9 C19         -3.8200     3.2720    -1.0090 ca         1 LPW      -0.124000
     10 C18         -3.1870     2.6540     0.0570 ca         1 LPW      -0.023000
     11 C17         -2.8910     1.2980    -0.0060 ca         1 LPW      -0.244500
     12 S1          -2.1100     0.5830     1.4230 sy         1 LPW       1.017000
     13 OSB         -2.1300     1.5860     2.4840 o          1 LPW      -0.524000
     14 OSA         -2.7030    -0.7260     1.6840 o          1 LPW      -0.524000
     15 C13         -0.4220     0.3480     0.9480 ca         1 LPW      -0.271500
     16 C12          0.1080    -0.9300     0.8550 ca         1 LPW      -0.015500
     17 C11          1.4480    -1.0860     0.5390 ca         1 LPW      -0.127000
     18 C10          2.2710     0.0190     0.3170 cp         1 LPW       0.039000
     19 C15          1.7070     1.2970     0.4140 ca         1 LPW      -0.127000
     20 C14          0.3760     1.4670     0.7380 ca         1 LPW      -0.015500
     21 C4           3.7000    -0.1510     0.0030 cp         1 LPW      -0.096000
     22 C3           4.1570    -1.2470    -0.7360 ca         1 LPW      -0.052500
     23 C2           5.4960    -1.4110    -1.0220 ca         1 LPW      -0.176000
     24 C1           6.4340    -0.4790    -0.5710 ca         1 LPW       0.156100
     25 OA           7.7160    -0.7180    -0.8920 os         1 LPW      -0.338100
     26 C8           8.7050     0.2010    -0.4650 c3         1 LPW       0.147900
     27 C6           5.9980     0.6190     0.1680 ca         1 LPW      -0.176000
     28 C5           4.6460     0.7710     0.4430 ca         1 LPW      -0.052500
     29 H1          -2.5580    -3.2140    -0.1500 hn         1 LPW       0.325500
     30 H2          -4.7400    -4.4630    -0.1530 ho         1 LPW       0.442000
     31 H3          -1.9200    -1.2020    -0.9340 hc         1 LPW       0.069200
     32 H4          -2.9510    -1.1960    -2.3280 hc         1 LPW       0.069200
     33 H5          -4.1140     0.6050    -3.0620 ha         1 LPW       0.117000
     34 H6          -4.6510     2.9980    -2.9670 ha         1 LPW       0.119000
     35 H7          -4.0500     4.3270    -0.9590 ha         1 LPW       0.121000
     36 H8          -2.9260     3.2330     0.9320 ha         1 LPW       0.143000
     37 H9          -0.5020    -1.8040     1.0400 ha         1 LPW       0.130000
     38 H10          1.8560    -2.0870     0.4950 ha         1 LPW       0.120000
     39 H11          2.3130     2.1730     0.2260 ha         1 LPW       0.120000
     40 H12         -0.0300     2.4680     0.8110 ha         1 LPW       0.130000
     41 H13          3.4540    -1.9780    -1.1150 ha         1 LPW       0.116000
     42 H14          5.8270    -2.2630    -1.6040 ha         1 LPW       0.125500
     43 H15          9.6540    -0.1730    -0.8380 h1         1 LPW       0.043367
     44 H16          8.5360     1.2010    -0.8730 h1         1 LPW       0.043367
     45 H17          8.7560     0.2670     0.6250 h1         1 LPW       0.043367
     46 H18          6.6890     1.3600     0.5440 ha         1 LPW       0.125500
     47 H19          4.3410     1.6240     1.0360 ha         1 LPW       0.116000
@<TRIPOS>BOND
     1     1     2 2   
     2     2     3 1   
     3     2     5 1   
     4     3     4 1   
     5     3    29 1   
     6     4    30 1   
     7     5     6 1   
     8     5    31 1   
     9     5    32 1   
    10     6     7 ar  
    11     6    11 ar  
    12     7     8 ar  
    13     7    33 1   
    14     8     9 ar  
    15     8    34 1   
    16     9    10 ar  
    17     9    35 1   
    18    10    11 ar  
    19    10    36 1   
    20    11    12 1   
    21    12    13 2   
    22    12    14 2   
    23    12    15 1   
    24    15    16 ar  
    25    15    20 ar  
    26    16    17 ar  
    27    16    37 1   
    28    17    18 ar  
    29    17    38 1   
    30    18    19 ar  
    31    18    21 1   
    32    19    20 ar  
    33    19    39 1   
    34    20    40 1   
    35    21    22 ar  
    36    21    28 ar  
    37    22    23 ar  
    38    22    41 1   
    39    23    24 ar  
    40    23    42 1   
    41    24    25 1   
    42    24    27 ar  
    43    25    26 1   
    44    26    43 1   
    45    26    44 1   
    46    26    45 1   
    47    27    28 ar  
    48    27    46 1   
    49    28    47 1   
@<TRIPOS>SUBSTRUCTURE
     1 LPW         1 TEMP              0 ****  ****    0 ROOT
