@<TRIPOS>MOLECULE
LPX
   73    72     1     0     0
SMALL
abcg2


@<TRIPOS>ATOM
      1 O7          44.6390     0.9310    29.9640 o          1 LPX      -0.504000
      2 C6          45.5820     0.4800    30.5760 c          1 LPX       0.586100
      3 O6          46.7840     1.0850    30.6390 os         1 LPX      -0.438100
      4 C5          46.9150     2.3960    30.0570 c3         1 LPX       0.172600
      5 C4          46.5580     3.4550    31.0920 c3         1 LPX       0.139300
      6 O5          46.5920     4.6990    30.3940 oh         1 LPX      -0.659000
      7 C3          47.4710     3.4430    32.3060 c3         1 LPX       0.207600
      8 O1          48.8310     3.5880    31.8950 os         1 LPX      -0.604400
      9 P1          49.9960     4.0560    32.9360 p5         1 LPX       1.404800
     10 O3          49.5170     3.8430    34.3370 o          1 LPX      -0.820500
     11 O2          50.1280     5.6470    32.6210 os         1 LPX      -0.598400
     12 C1          49.0260     6.5230    32.8800 c3         1 LPX       0.216600
     13 C2          49.5540     7.9220    33.1380 c3         1 LPX       0.135800
     14 N1          48.4360     8.8070    33.4830 n8         1 LPX      -1.018200
     15 O4          51.2750     3.4550    32.4580 o          1 LPX      -0.820500
     16 C7          45.5690    -0.7790    31.3990 c3         1 LPX      -0.136400
     17 C8          45.3900    -0.4500    32.8940 c3         1 LPX      -0.073400
     18 C9          43.9900     0.0520    33.2530 c3         1 LPX      -0.082400
     19 C10         43.9240     0.6420    34.6670 c3         1 LPX      -0.072400
     20 C11         44.4460     2.0840    34.7420 c3         1 LPX      -0.081400
     21 C12         43.4170     3.1080    34.2540 c3         1 LPX      -0.072400
     22 C13         43.9740     4.5110    34.0090 c3         1 LPX      -0.073400
     23 C14         44.6570     5.1540    35.2140 c3         1 LPX      -0.080400
     24 C15         45.1320     6.5770    34.9220 c3         1 LPX      -0.072400
     25 C16         45.8370     7.2680    36.0910 c3         1 LPX      -0.069400
     26 C17         47.1350     6.5870    36.5230 c3         1 LPX      -0.088400
     27 C18         47.9620     7.4210    37.5000 c3         1 LPX      -0.067400
     28 C19         49.2890     6.7710    37.9020 c3         1 LPX      -0.070400
     29 C20         50.3030     6.6680    36.7630 c3         1 LPX      -0.083400
     30 C21         51.6190     6.0240    37.1930 c3         1 LPX      -0.080100
     31 H5          47.9560     2.4830    29.7560 h1         1 LPX       0.081700
     32 H5A         46.2660     2.4880    29.1900 h1         1 LPX       0.081700
     33 H4          45.5440     3.2520    31.4550 h1         1 LPX       0.019700
     34 HO5         46.3500     5.4020    31.0110 ho         1 LPX       0.441000
     35 H3          47.1780     4.2510    32.9800 h1         1 LPX       0.024700
     36 H3A         47.3440     2.5010    32.8440 h1         1 LPX       0.024700
     37 H1          48.3510     6.5250    32.0210 h1         1 LPX       0.020200
     38 H1A         48.4700     6.1710    33.7510 h1         1 LPX       0.020200
     39 H2          50.3240     7.8670    33.9170 h1         1 LPX       0.038700
     40 H2A         50.0310     8.3010    32.2310 h1         1 LPX       0.038700
     41 HN1         48.1060     8.5950    34.4190 hn         1 LPX       0.384500
     42 HN1A        48.7540     9.7700    33.5080 hn         1 LPX       0.384500
     43 H7          44.7530    -1.4100    31.0470 hc         1 LPX       0.066200
     44 H7A         46.5120    -1.3060    31.2510 hc         1 LPX       0.066200
     45 H8          45.6050    -1.3530    33.4690 hc         1 LPX       0.055200
     46 H8A         46.1420     0.2880    33.1820 hc         1 LPX       0.055200
     47 H9          43.6680     0.8080    32.5320 hc         1 LPX       0.040700
     48 H9A         43.2860    -0.7790    33.1560 hc         1 LPX       0.040700
     49 H10         42.8910     0.6230    35.0290 hc         1 LPX       0.033200
     50 H10A        44.4980     0.0020    35.3450 hc         1 LPX       0.033200
     51 H11         44.7320     2.3180    35.7700 hc         1 LPX       0.050200
     52 H11A        45.3590     2.1710    34.1450 hc         1 LPX       0.050200
     53 H12         42.9670     2.7490    33.3220 hc         1 LPX       0.031700
     54 H12A        42.6030     3.1620    34.9850 hc         1 LPX       0.031700
     55 H13         44.6910     4.4710    33.1830 hc         1 LPX       0.034200
     56 H13A        43.1600     5.1610    33.6710 hc         1 LPX       0.034200
     57 H14         43.9640     5.1680    36.0640 hc         1 LPX       0.042700
     58 H14A        45.5070     4.5410    35.5190 hc         1 LPX       0.042700
     59 H15         45.8130     6.5530    34.0640 hc         1 LPX       0.036700
     60 H15A        44.2710     7.1800    34.6140 hc         1 LPX       0.036700
     61 H16         46.0640     8.3000    35.8000 hc         1 LPX       0.025700
     62 H16A        45.1550     7.3360    36.9460 hc         1 LPX       0.025700
     63 H17         46.9180     5.6150    36.9780 hc         1 LPX       0.058200
     64 H17A        47.7290     6.3760    35.6310 hc         1 LPX       0.058200
     65 H18         48.1650     8.4010    37.0520 hc         1 LPX       0.020700
     66 H18A        47.3660     7.6120    38.3980 hc         1 LPX       0.020700
     67 H19         49.7360     7.3450    38.7210 hc         1 LPX       0.029700
     68 H19A        49.0930     5.7690    38.3020 hc         1 LPX       0.029700
     69 H20         49.8810     6.0920    35.9380 hc         1 LPX       0.052700
     70 H20A        50.4970     7.6720    36.3700 hc         1 LPX       0.052700
     71 H21         52.3250     5.9700    36.3610 hc         1 LPX       0.028033
     72 H21A        52.0920     6.5910    37.9990 hc         1 LPX       0.028033
     73 H21B        51.4540     5.0060    37.5560 hc         1 LPX       0.028033
@<TRIPOS>BOND
     1     1     2 2   
     2     2     3 1   
     3     2    16 1   
     4     3     4 1   
     5     4     5 1   
     6     4    31 1   
     7     4    32 1   
     8     5     6 1   
     9     5     7 1   
    10     5    33 1   
    11     6    34 1   
    12     7     8 1   
    13     7    35 1   
    14     7    36 1   
    15     8     9 1   
    16     9    10 1   
    17     9    11 1   
    18     9    15 1   
    19    11    12 1   
    20    12    13 1   
    21    12    37 1   
    22    12    38 1   
    23    13    14 1   
    24    13    39 1   
    25    13    40 1   
    26    14    41 1   
    27    14    42 1   
    28    16    17 1   
    29    16    43 1   
    30    16    44 1   
    31    17    18 1   
    32    17    45 1   
    33    17    46 1   
    34    18    19 1   
    35    18    47 1   
    36    18    48 1   
    37    19    20 1   
    38    19    49 1   
    39    19    50 1   
    40    20    21 1   
    41    20    51 1   
    42    20    52 1   
    43    21    22 1   
    44    21    53 1   
    45    21    54 1   
    46    22    23 1   
    47    22    55 1   
    48    22    56 1   
    49    23    24 1   
    50    23    57 1   
    51    23    58 1   
    52    24    25 1   
    53    24    59 1   
    54    24    60 1   
    55    25    26 1   
    56    25    61 1   
    57    25    62 1   
    58    26    27 1   
    59    26    63 1   
    60    26    64 1   
    61    27    28 1   
    62    27    65 1   
    63    27    66 1   
    64    28    29 1   
    65    28    67 1   
    66    28    68 1   
    67    29    30 1   
    68    29    69 1   
    69    29    70 1   
    70    30    71 1   
    71    30    72 1   
    72    30    73 1   
@<TRIPOS>SUBSTRUCTURE
     1 LPX         1 TEMP              0 ****  ****    0 ROOT
