@<TRIPOS>MOLECULE
LPX
   73    72     1     0     0
SMALL
No Charge or Current Charge


@<TRIPOS>ATOM
      1 O7          44.3970     1.0640    30.1300 o          1 LPX      -0.504000
      2 C6          45.3520     0.4110    30.5260 c          1 LPX       0.586100
      3 O6          46.6640     0.7800    30.3770 os         1 LPX      -0.438100
      4 C5          46.9720     2.0680    29.7970 c3         1 LPX       0.172600
      5 C4          46.7350     3.1900    30.8500 c3         1 LPX       0.139300
      6 O5          46.9620     4.4740    30.2380 oh         1 LPX      -0.659000
      7 C3          47.6340     3.0170    32.1130 c3         1 LPX       0.207600
      8 O1          49.0080     3.2180    31.7440 os         1 LPX      -0.604400
      9 P1          49.8660     4.4510    32.3240 p5         1 LPX       1.404800
     10 O3          49.7100     4.5690    33.8000 o          1 LPX      -0.820500
     11 O2          49.1290     5.6290    31.5030 os         1 LPX      -0.598400
     12 C1          48.2900     6.5970    32.1590 c3         1 LPX       0.216600
     13 C2          49.1650     7.6160    32.9560 c3         1 LPX       0.135800
     14 N1          48.4030     8.7940    33.4520 n8         1 LPX      -1.018200
     15 O4          51.2950     4.3430    31.9130 o          1 LPX      -0.820500
     16 C7          45.2290    -0.8730    31.3530 c3         1 LPX      -0.136400
     17 C8          45.1980    -0.5570    32.8690 c3         1 LPX      -0.073400
     18 C9          43.8410     0.0020    33.3660 c3         1 LPX      -0.082400
     19 C10         43.9180     0.6960    34.7480 c3         1 LPX      -0.072400
     20 C11         44.5380     2.1180    34.7280 c3         1 LPX      -0.081400
     21 C12         43.6030     3.2010    34.1310 c3         1 LPX      -0.072400
     22 C13         44.2430     4.5990    33.9650 c3         1 LPX      -0.073400
     23 C14         44.8050     5.2140    35.2660 c3         1 LPX      -0.080400
     24 C15         45.2430     6.6870    35.0880 c3         1 LPX      -0.072400
     25 C16         45.9020     7.3210    36.3350 c3         1 LPX      -0.069400
     26 C17         47.2740     6.7110    36.7100 c3         1 LPX      -0.088400
     27 C18         47.9780     7.4710    37.8570 c3         1 LPX      -0.067400
     28 C19         49.3220     6.8500    38.3070 c3         1 LPX      -0.070400
     29 C20         50.4360     6.8870    37.2350 c3         1 LPX      -0.083400
     30 C21         51.7850     6.3500    37.7510 c3         1 LPX      -0.080100
     31 H5          48.0250     2.0950    29.4880 h1         1 LPX       0.081700
     32 H5A         46.3630     2.2570    28.9030 h1         1 LPX       0.081700
     33 H4          45.6890     3.1360    31.1780 h1         1 LPX       0.019700
     34 HO5         47.8280     4.8020    30.5920 ho         1 LPX       0.441000
     35 H3          47.3150     3.7360    32.8800 h1         1 LPX       0.024700
     36 H3A         47.4960     2.0130    32.5320 h1         1 LPX       0.024700
     37 H1          47.7040     7.1400    31.4070 h1         1 LPX       0.020200
     38 H1A         47.5850     6.1020    32.8380 h1         1 LPX       0.020200
     39 H2          49.6300     7.1230    33.8190 h1         1 LPX       0.038700
     40 H2A         49.9660     7.9820    32.2990 h1         1 LPX       0.038700
     41 HN1         47.7220     8.4830    34.1530 hn         1 LPX       0.384500
     42 HN1A        49.0380     9.4040    33.9820 hn         1 LPX       0.384500
     43 H7          44.3230    -1.4210    31.0690 hc         1 LPX       0.066200
     44 H7A         46.1210    -1.4860    31.1790 hc         1 LPX       0.066200
     45 H8          45.4200    -1.4740    33.4300 hc         1 LPX       0.055200
     46 H8A         46.0090     0.1440    33.0990 hc         1 LPX       0.055200
     47 H9          43.4240     0.6970    32.6300 hc         1 LPX       0.040700
     48 H9A         43.1290    -0.8310    33.4290 hc         1 LPX       0.040700
     49 H10         42.9080     0.7590    35.1730 hc         1 LPX       0.033200
     50 H10A        44.4970     0.0610    35.4310 hc         1 LPX       0.033200
     51 H11         44.7810     2.3940    35.7620 hc         1 LPX       0.050200
     52 H11A        45.4870     2.1070    34.1800 hc         1 LPX       0.050200
     53 H12         43.2490     2.8800    33.1450 hc         1 LPX       0.031700
     54 H12A        42.7120     3.2910    34.7650 hc         1 LPX       0.031700
     55 H13         45.0460     4.5420    33.2190 hc         1 LPX       0.034200
     56 H13A        43.4840     5.2740    33.5510 hc         1 LPX       0.034200
     57 H14         44.0460     5.1580    36.0560 hc         1 LPX       0.042700
     58 H14A        45.6610     4.6150    35.5970 hc         1 LPX       0.042700
     59 H15         45.9340     6.7630    34.2420 hc         1 LPX       0.036700
     60 H15A        44.3610     7.2830    34.8220 hc         1 LPX       0.036700
     61 H16         46.0350     8.3930    36.1440 hc         1 LPX       0.025700
     62 H16A        45.2190     7.2380    37.1900 hc         1 LPX       0.025700
     63 H17         47.1420     5.6640    37.0100 hc         1 LPX       0.058200
     64 H17A        47.9150     6.7100    35.8210 hc         1 LPX       0.058200
     65 H18         48.1470     8.5120    37.5550 hc         1 LPX       0.020700
     66 H18A        47.3050     7.5020    38.7240 hc         1 LPX       0.020700
     67 H19         49.6700     7.3920    39.1950 hc         1 LPX       0.029700
     68 H19A        49.1530     5.8120    38.6210 hc         1 LPX       0.029700
     69 H20         50.1360     6.2900    36.3650 hc         1 LPX       0.052700
     70 H20A        50.5730     7.9180    36.8850 hc         1 LPX       0.052700
     71 H21         52.5420     6.3920    36.9580 hc         1 LPX       0.028033
     72 H21A        52.1430     6.9480    38.5980 hc         1 LPX       0.028033
     73 H21B        51.6890     5.3080    38.0780 hc         1 LPX       0.028033
@<TRIPOS>BOND
     1     1     2 2   
     2     2     3 1   
     3     2    16 1   
     4     3     4 1   
     5     4     5 1   
     6     4    31 1   
     7     4    32 1   
     8     5     6 1   
     9     5     7 1   
    10     5    33 1   
    11     6    34 1   
    12     7     8 1   
    13     7    35 1   
    14     7    36 1   
    15     8     9 1   
    16     9    10 1   
    17     9    11 1   
    18     9    15 1   
    19    11    12 1   
    20    12    13 1   
    21    12    37 1   
    22    12    38 1   
    23    13    14 1   
    24    13    39 1   
    25    13    40 1   
    26    14    41 1   
    27    14    42 1   
    28    16    17 1   
    29    16    43 1   
    30    16    44 1   
    31    17    18 1   
    32    17    45 1   
    33    17    46 1   
    34    18    19 1   
    35    18    47 1   
    36    18    48 1   
    37    19    20 1   
    38    19    49 1   
    39    19    50 1   
    40    20    21 1   
    41    20    51 1   
    42    20    52 1   
    43    21    22 1   
    44    21    53 1   
    45    21    54 1   
    46    22    23 1   
    47    22    55 1   
    48    22    56 1   
    49    23    24 1   
    50    23    57 1   
    51    23    58 1   
    52    24    25 1   
    53    24    59 1   
    54    24    60 1   
    55    25    26 1   
    56    25    61 1   
    57    25    62 1   
    58    26    27 1   
    59    26    63 1   
    60    26    64 1   
    61    27    28 1   
    62    27    65 1   
    63    27    66 1   
    64    28    29 1   
    65    28    67 1   
    66    28    68 1   
    67    29    30 1   
    68    29    69 1   
    69    29    70 1   
    70    30    71 1   
    71    30    72 1   
    72    30    73 1   
@<TRIPOS>SUBSTRUCTURE
     1 LPX         1 TEMP              0 ****  ****    0 ROOT
