@<TRIPOS>MOLECULE
LPY
   77    77     1     0     0
SMALL
abcg2


@<TRIPOS>ATOM
      1 P          -11.6560     4.1290    22.0140 p5         1 LPY       1.418800
      2 O1          -8.3450    -0.2030    25.0630 oh         1 LPY      -0.734000
      3 O2          -8.5470     1.7600    23.0870 oh         1 LPY      -0.705000
      4 O3         -10.7690     3.4610    23.2010 os         1 LPY      -0.588400
      5 O4         -12.1570     5.4470    22.4880 o          1 LPY      -0.810000
      6 O5         -12.6220     3.1020    21.4840 o          1 LPY      -0.810000
      7 O7          -7.8400     0.3940    16.7490 o          1 LPY      -0.513000
      8 O8         -11.2530     1.7230    19.6570 oh         1 LPY      -0.730000
      9 O9          -9.8200     1.3010    17.2950 os         1 LPY      -0.424100
     10 O10        -10.5370     4.4570    20.8870 os         1 LPY      -0.600400
     11 O11        -11.7460     2.7250    25.7170 oh         1 LPY      -0.705000
     12 O12        -13.0970     0.3120    25.9860 oh         1 LPY      -0.734000
     13 C15        -10.2990     2.6690    19.1970 c3         1 LPY       0.145300
     14 C16         -9.6590     3.4640    20.3320 c3         1 LPY       0.182600
     15 C17        -10.7310    -0.0580    25.5640 c6         1 LPY       0.108300
     16 C20        -12.0640     0.4220    25.0090 c6         1 LPY       0.117300
     17 C26         -9.6260     0.1530    24.5360 c6         1 LPY       0.117300
     18 C29        -10.1830     1.0330     1.3160 c3         1 LPY      -0.088100
     19 C30        -10.5080     0.2780     2.6030 c3         1 LPY      -0.075400
     20 C31        -10.1160     1.0450     3.8640 c3         1 LPY      -0.075400
     21 C32        -10.4320     0.2950     5.1560 c3         1 LPY      -0.074400
     22 C33        -10.0210     1.0520     6.4170 c3         1 LPY      -0.074400
     23 C34        -10.3400     0.2990     7.7070 c3         1 LPY      -0.074400
     24 C35         -9.8770     1.0230     8.9690 c3         1 LPY      -0.074400
     25 C36        -10.2070     0.2690    10.2550 c3         1 LPY      -0.074400
     26 C37         -9.6600     0.9370    11.5140 c3         1 LPY      -0.074400
     27 C38        -10.0040     0.1790    12.7950 c3         1 LPY      -0.074400
     28 C39         -9.3740     0.7900    14.0430 c3         1 LPY      -0.070400
     29 C40         -9.7360     0.0080    15.3150 c3         1 LPY      -0.136400
     30 C41         -9.5320     1.6140    24.1050 c6         1 LPY       0.156300
     31 C42         -9.0190     0.5620    16.5160 c          1 LPY       0.588100
     32 C43        -10.8750     2.0850    23.5650 c6         1 LPY       0.256300
     33 C44        -11.9890     1.8860    24.5900 c6         1 LPY       0.156300
     34 C45         -9.2160     1.9200    18.4510 c3         1 LPY       0.167600
     35 H1          -8.2180    -1.1520    24.9510 ho         1 LPY       0.505000
     36 H2          -7.7570     1.2980    23.4010 ho         1 LPY       0.499500
     37 H4         -11.8530     2.1810    20.2970 ho         1 LPY       0.520000
     38 H5         -12.3580     2.4430    26.4100 ho         1 LPY       0.499500
     39 H6         -12.9880    -0.5430    26.4240 ho         1 LPY       0.505000
     40 H7         -10.2290    -1.6770    26.5560 ho         1 LPY       0.502000
     41 H8         -10.7720     3.3820    18.5070 h1         1 LPY       0.044700
     42 H9          -9.3100     2.7900    21.1160 h1         1 LPY       0.041200
     43 H10         -8.8030     4.0190    19.9460 h1         1 LPY       0.041200
     44 H11        -10.4910     0.5100    26.4660 h1         1 LPY       0.062700
     45 H12        -12.3170    -0.1820    24.1290 h1         1 LPY       0.059200
     46 H13         -9.8400    -0.4590    23.6530 h1         1 LPY       0.059200
     47 H14        -10.4760     0.4630     0.4320 hc         1 LPY       0.030700
     48 H15        -10.7070     1.9930     1.2840 hc         1 LPY       0.030700
     49 H16         -9.1120     1.2380     1.2430 hc         1 LPY       0.030700
     50 H17        -11.5800     0.0550     2.6360 hc         1 LPY       0.035700
     51 H18         -9.9950    -0.6900     2.5990 hc         1 LPY       0.035700
     52 H19         -9.0430     1.2690     3.8290 hc         1 LPY       0.037200
     53 H20        -10.6310     2.0130     3.8710 hc         1 LPY       0.037200
     54 H21        -11.5070     0.0820     5.1950 hc         1 LPY       0.036200
     55 H22         -9.9270    -0.6770     5.1410 hc         1 LPY       0.036200
     56 H23         -8.9460     1.2600     6.3780 hc         1 LPY       0.037200
     57 H24        -10.5210     2.0270     6.4340 hc         1 LPY       0.037200
     58 H25        -11.4200     0.1220     7.7650 hc         1 LPY       0.036200
     59 H26         -9.8700    -0.6910     7.6710 hc         1 LPY       0.036200
     60 H27         -8.7940     1.1840     8.9130 hc         1 LPY       0.037700
     61 H28        -10.3330     2.0200     9.0050 hc         1 LPY       0.037700
     62 H29        -11.2940     0.1620    10.3430 hc         1 LPY       0.036200
     63 H30         -9.8040    -0.7480    10.1880 hc         1 LPY       0.036200
     64 H31         -8.5700     1.0240    11.4290 hc         1 LPY       0.039200
     65 H32        -10.0450     1.9600    11.5830 hc         1 LPY       0.039200
     66 H33        -11.0920     0.1440    12.9150 hc         1 LPY       0.037700
     67 H34         -9.6690    -0.8600    12.7000 hc         1 LPY       0.037700
     68 H35         -8.2860     0.8070    13.9320 hc         1 LPY       0.050700
     69 H36         -9.7000     1.8290    14.1530 hc         1 LPY       0.050700
     70 H37        -10.8130     0.0330    15.4800 hc         1 LPY       0.069200
     71 H38         -9.4250    -1.0330    15.2010 hc         1 LPY       0.069200
     72 H39         -9.2590     2.2230    24.9740 h1         1 LPY       0.080700
     73 H40        -11.1240     1.4930    22.6820 h1         1 LPY       0.059700
     74 H41        -12.9370     2.1640    24.1190 h1         1 LPY       0.080700
     75 H42         -8.7780     1.1460    19.0820 h1         1 LPY       0.047200
     76 H43         -8.4300     2.5980    18.1180 h1         1 LPY       0.047200
     77 O13        -10.8880    -1.4400    25.8930 oh         1 LPY      -0.744000
@<TRIPOS>BOND
     1     1     4 1   
     2     1     5 1   
     3     1     6 1   
     4     1    10 1   
     5     2    17 1   
     6     2    35 1   
     7     3    30 1   
     8     3    36 1   
     9     4    32 1   
    10     7    31 2   
    11     8    13 1   
    12     8    37 1   
    13     9    31 1   
    14     9    34 1   
    15    10    14 1   
    16    11    33 1   
    17    11    38 1   
    18    12    16 1   
    19    12    39 1   
    20    13    14 1   
    21    13    34 1   
    22    13    41 1   
    23    14    42 1   
    24    14    43 1   
    25    15    16 1   
    26    15    17 1   
    27    15    44 1   
    28    15    77 1   
    29    16    33 1   
    30    16    45 1   
    31    17    30 1   
    32    17    46 1   
    33    18    19 1   
    34    18    47 1   
    35    18    48 1   
    36    18    49 1   
    37    19    20 1   
    38    19    50 1   
    39    19    51 1   
    40    20    21 1   
    41    20    52 1   
    42    20    53 1   
    43    21    22 1   
    44    21    54 1   
    45    21    55 1   
    46    22    23 1   
    47    22    56 1   
    48    22    57 1   
    49    23    24 1   
    50    23    58 1   
    51    23    59 1   
    52    24    25 1   
    53    24    60 1   
    54    24    61 1   
    55    25    26 1   
    56    25    62 1   
    57    25    63 1   
    58    26    27 1   
    59    26    64 1   
    60    26    65 1   
    61    27    28 1   
    62    27    66 1   
    63    27    67 1   
    64    28    29 1   
    65    28    68 1   
    66    28    69 1   
    67    29    31 1   
    68    29    70 1   
    69    29    71 1   
    70    30    32 1   
    71    30    72 1   
    72    32    33 1   
    73    32    73 1   
    74    33    74 1   
    75    34    75 1   
    76    34    76 1   
    77    40    77 1   
@<TRIPOS>SUBSTRUCTURE
     1 LPY         1 TEMP              0 ****  ****    0 ROOT
