@<TRIPOS>MOLECULE
LPY
   77    77     1     0     0
SMALL
No Charge or Current Charge


@<TRIPOS>ATOM
      1 P          -11.4920     4.0390    21.3540 p5         1 LPY       1.418800
      2 O1          -8.7630     0.7560    26.0760 oh         1 LPY      -0.734000
      3 O2          -8.5470     2.7780    24.1180 oh         1 LPY      -0.705000
      4 O3         -11.0160     3.7810    22.8700 os         1 LPY      -0.588400
      5 O4         -12.2430     5.3230    21.2500 o          1 LPY      -0.810000
      6 O5         -12.2650     2.8950    20.7920 o          1 LPY      -0.810000
      7 O7          -6.9690    -0.1520    16.8510 o          1 LPY      -0.513000
      8 O8         -10.6830     1.2670    19.6530 oh         1 LPY      -0.730000
      9 O9          -9.0280     0.7460    17.3250 os         1 LPY      -0.424100
     10 O10        -10.0430     4.1790    20.6530 os         1 LPY      -0.600400
     11 O11        -12.9670     2.6810    24.8080 oh         1 LPY      -0.705000
     12 O12        -13.4460    -0.0670    24.8910 oh         1 LPY      -0.734000
     13 C15         -9.6800     2.1930    19.1810 c3         1 LPY       0.145300
     14 C16         -9.1440     3.0890    20.3460 c3         1 LPY       0.182600
     15 C17        -11.1140     0.3530    25.5390 c6         1 LPY       0.108300
     16 C20        -12.1720     0.4030    24.3940 c6         1 LPY       0.117300
     17 C26         -9.7390     0.8580    25.0240 c6         1 LPY       0.117300
     18 C29        -11.1950     1.7100     1.5740 c3         1 LPY      -0.088100
     19 C30        -11.3670     0.8270     2.8250 c3         1 LPY      -0.075400
     20 C31        -10.6900     1.4190     4.0810 c3         1 LPY      -0.075400
     21 C32        -10.8620     0.5340     5.3350 c3         1 LPY      -0.074400
     22 C33        -10.1850     1.1260     6.5900 c3         1 LPY      -0.074400
     23 C34        -10.3570     0.2410     7.8440 c3         1 LPY      -0.074400
     24 C35         -9.6800     0.8330     9.0990 c3         1 LPY      -0.074400
     25 C36         -9.8510    -0.0520    10.3530 c3         1 LPY      -0.074400
     26 C37         -9.1740     0.5400    11.6080 c3         1 LPY      -0.074400
     27 C38         -9.3450    -0.3460    12.8620 c3         1 LPY      -0.074400
     28 C39         -8.6670     0.2460    14.1170 c3         1 LPY      -0.070400
     29 C40         -8.8380    -0.6420    15.3720 c3         1 LPY      -0.136400
     30 C41         -9.8580     2.3260    24.5200 c6         1 LPY       0.156300
     31 C42         -8.1580    -0.0170    16.5930 c          1 LPY       0.588100
     32 C43        -10.9170     2.4240    23.3690 c6         1 LPY       0.256300
     33 C44        -12.3150     1.8500    23.8220 c6         1 LPY       0.156300
     34 C45         -8.5200     1.4150    18.4980 c3         1 LPY       0.167600
     35 H1          -9.0290    -0.0620    26.5660 ho         1 LPY       0.505000
     36 H2          -7.9410     2.3540    24.7720 ho         1 LPY       0.499500
     37 H4         -11.4130     1.8400    20.0520 ho         1 LPY       0.520000
     38 H5         -13.5900     2.0670    25.2670 ho         1 LPY       0.499500
     39 H6         -13.9470    -0.4400    24.1250 ho         1 LPY       0.505000
     40 H7         -11.9280    -1.3240    26.0730 ho         1 LPY       0.502000
     41 H8         -10.1130     2.8590    18.4230 h1         1 LPY       0.044700
     42 H9          -8.9500     2.4700    21.2310 h1         1 LPY       0.041200
     43 H10         -8.1770     3.5100    20.0420 h1         1 LPY       0.041200
     44 H11        -11.4480     1.0240    26.3460 h1         1 LPY       0.062700
     45 H12        -11.8220    -0.2510    23.5800 h1         1 LPY       0.059200
     46 H13         -9.4370     0.2230    24.1760 h1         1 LPY       0.059200
     47 H14        -11.6910     1.2500     0.7110 hc         1 LPY       0.030700
     48 H15        -11.6360     2.7010     1.7350 hc         1 LPY       0.030700
     49 H16        -10.1330     1.8380     1.3320 hc         1 LPY       0.030700
     50 H17        -12.4380     0.6890     3.0200 hc         1 LPY       0.035700
     51 H18        -10.9480    -0.1660     2.6200 hc         1 LPY       0.035700
     52 H19         -9.6200     1.5570     3.8810 hc         1 LPY       0.037200
     53 H20        -11.1100     2.4130     4.2810 hc         1 LPY       0.037200
     54 H21        -11.9320     0.3960     5.5340 hc         1 LPY       0.036200
     55 H22        -10.4420    -0.4600     5.1340 hc         1 LPY       0.036200
     56 H23         -9.1150     1.2640     6.3910 hc         1 LPY       0.037200
     57 H24        -10.6040     2.1200     6.7900 hc         1 LPY       0.037200
     58 H25        -11.4270     0.1030     8.0430 hc         1 LPY       0.036200
     59 H26         -9.9370    -0.7530     7.6430 hc         1 LPY       0.036200
     60 H27         -8.6100     0.9720     8.9000 hc         1 LPY       0.037700
     61 H28        -10.0990     1.8270     9.3000 hc         1 LPY       0.037700
     62 H29        -10.9210    -0.1910    10.5520 hc         1 LPY       0.036200
     63 H30         -9.4320    -1.0460    10.1520 hc         1 LPY       0.036200
     64 H31         -8.1040     0.6780    11.4080 hc         1 LPY       0.039200
     65 H32         -9.5940     1.5330    11.8090 hc         1 LPY       0.039200
     66 H33        -10.4150    -0.4840    13.0610 hc         1 LPY       0.037700
     67 H34         -8.9260    -1.3400    12.6600 hc         1 LPY       0.037700
     68 H35         -7.5970     0.3850    13.9170 hc         1 LPY       0.050700
     69 H36         -9.0870     1.2400    14.3190 hc         1 LPY       0.050700
     70 H37         -9.9120    -0.7340    15.5680 hc         1 LPY       0.069200
     71 H38         -8.3950    -1.6260    15.1780 hc         1 LPY       0.069200
     72 H39        -10.2200     2.9430    25.3570 h1         1 LPY       0.080700
     73 H40        -10.5590     1.7800    22.5530 h1         1 LPY       0.059700
     74 H41        -12.9550     1.7770    22.9310 h1         1 LPY       0.080700
     75 H42         -8.0970     0.6920    19.2090 h1         1 LPY       0.047200
     76 H43         -7.7270     2.1210    18.2170 h1         1 LPY       0.047200
     77 O13        -10.9980    -0.9890    26.0470 oh         1 LPY      -0.744000
@<TRIPOS>BOND
     1     1     4 1   
     2     1     5 1   
     3     1     6 1   
     4     1    10 1   
     5     2    17 1   
     6     2    35 1   
     7     3    30 1   
     8     3    36 1   
     9     4    32 1   
    10     7    31 2   
    11     8    13 1   
    12     8    37 1   
    13     9    31 1   
    14     9    34 1   
    15    10    14 1   
    16    11    33 1   
    17    11    38 1   
    18    12    16 1   
    19    12    39 1   
    20    13    14 1   
    21    13    34 1   
    22    13    41 1   
    23    14    42 1   
    24    14    43 1   
    25    15    16 1   
    26    15    17 1   
    27    15    44 1   
    28    15    77 1   
    29    16    33 1   
    30    16    45 1   
    31    17    30 1   
    32    17    46 1   
    33    18    19 1   
    34    18    47 1   
    35    18    48 1   
    36    18    49 1   
    37    19    20 1   
    38    19    50 1   
    39    19    51 1   
    40    20    21 1   
    41    20    52 1   
    42    20    53 1   
    43    21    22 1   
    44    21    54 1   
    45    21    55 1   
    46    22    23 1   
    47    22    56 1   
    48    22    57 1   
    49    23    24 1   
    50    23    58 1   
    51    23    59 1   
    52    24    25 1   
    53    24    60 1   
    54    24    61 1   
    55    25    26 1   
    56    25    62 1   
    57    25    63 1   
    58    26    27 1   
    59    26    64 1   
    60    26    65 1   
    61    27    28 1   
    62    27    66 1   
    63    27    67 1   
    64    28    29 1   
    65    28    68 1   
    66    28    69 1   
    67    29    31 1   
    68    29    70 1   
    69    29    71 1   
    70    30    32 1   
    71    30    72 1   
    72    32    33 1   
    73    32    73 1   
    74    33    74 1   
    75    34    75 1   
    76    34    76 1   
    77    40    77 1   
@<TRIPOS>SUBSTRUCTURE
     1 LPY         1 TEMP              0 ****  ****    0 ROOT
