@<TRIPOS>MOLECULE
LPZ
   39    40     1     0     0
SMALL
bcc


@<TRIPOS>ATOM
      1 N1          -4.7440    -0.8010    -0.0350 nx         1 LPZ      -0.688400
      2 C4           2.4990     0.3360    -0.0280 ca         1 LPZ       0.112100
      3 C5           3.5740     1.1680    -0.3410 ca         1 LPZ      -0.177000
      4 C6           4.8600     0.6620    -0.3670 ca         1 LPZ      -0.091000
      5 C7           0.1660     0.1380     0.2910 c3         1 LPZ       0.073400
      6 C8          -1.0520     1.0470     0.2070 c          1 LPZ       0.675100
      7 C10         -3.4720    -1.5790     0.0080 c6         1 LPZ       0.102300
      8 C13         -5.7510    -1.4500    -0.9080 c3         1 LPZ       0.102100
      9 N           -2.2450     0.4730     0.4880 n          1 LPZ      -0.509800
     10 O            1.2790     0.9210    -0.0280 os         1 LPZ      -0.290900
     11 C1           5.1230    -0.6800    -0.0860 ca         1 LPZ      -0.089300
     12 C11         -4.4860     0.6100    -0.4470 c6         1 LPZ       0.102300
     13 C12         -3.4660     1.2500     0.4710 c6         1 LPZ       0.077500
     14 C2           4.0410    -1.4910     0.2280 ca         1 LPZ      -0.091000
     15 C3           2.7380    -1.0020     0.2610 ca         1 LPZ      -0.177000
     16 C9          -2.4540    -0.8970     0.9030 c6         1 LPZ       0.077500
     17 O1          -0.9420     2.2190    -0.0950 o          1 LPZ      -0.507100
     18 H1          -5.1320    -0.7820     0.9110 hn         1 LPZ       0.444800
     19 H2           3.3930     2.2140    -0.5580 ha         1 LPZ       0.135500
     20 H3           5.6790     1.3300    -0.6080 ha         1 LPZ       0.138000
     21 H4           0.2480    -0.2800     1.3020 h1         1 LPZ       0.048700
     22 H5           0.0530    -0.7030    -0.4050 h1         1 LPZ       0.048700
     23 H6          -3.7040    -2.5730     0.3830 hx         1 LPZ       0.107450
     24 H7          -3.1120    -1.6580    -1.0170 hx         1 LPZ       0.107450
     25 H8          -5.9440    -2.4520    -0.5350 hx         1 LPZ       0.101700
     26 H9          -6.6630    -0.8620    -0.8860 hx         1 LPZ       0.101700
     27 H10         -5.3600    -1.4940    -1.9200 hx         1 LPZ       0.101700
     28 H11          6.7920    -1.5060    -1.1670 hc         1 LPZ       0.048367
     29 H12          7.2520    -0.4840     0.1830 hc         1 LPZ       0.048367
     30 H13          6.6360    -2.1090     0.4750 hc         1 LPZ       0.048367
     31 H14         -4.1350     0.5840    -1.4780 hx         1 LPZ       0.107450
     32 H15         -5.4320     1.1450    -0.4040 hx         1 LPZ       0.107450
     33 H16         -3.8680     1.3300     1.4860 h1         1 LPZ       0.094200
     34 H17         -3.2660     2.2580     0.1180 h1         1 LPZ       0.094200
     35 H18          4.2050    -2.5380     0.4580 ha         1 LPZ       0.138000
     36 H19          1.9360    -1.6820     0.5160 ha         1 LPZ       0.135500
     37 H20         -2.7950    -0.9210     1.9420 h1         1 LPZ       0.094200
     38 H21         -1.5420    -1.4860     0.8600 h1         1 LPZ       0.094200
     39 C            6.5220    -1.2230    -0.1480 c3         1 LPZ      -0.047800
@<TRIPOS>BOND
     1     1     7 1   
     2     1     8 1   
     3     1    12 1   
     4     1    18 1   
     5     2     3 ar  
     6     2    10 1   
     7     2    15 ar  
     8     3     4 ar  
     9     3    19 1   
    10     4    11 ar  
    11     4    20 1   
    12     5     6 1   
    13     5    10 1   
    14     5    21 1   
    15     5    22 1   
    16     6     9 1   
    17     6    17 2   
    18     7    16 1   
    19     7    23 1   
    20     7    24 1   
    21     8    25 1   
    22     8    26 1   
    23     8    27 1   
    24     9    13 1   
    25     9    16 1   
    26    11    14 ar  
    27    11    39 1   
    28    12    13 1   
    29    12    31 1   
    30    12    32 1   
    31    13    33 1   
    32    13    34 1   
    33    14    15 ar  
    34    14    35 1   
    35    15    36 1   
    36    16    37 1   
    37    16    38 1   
    38    28    39 1   
    39    29    39 1   
    40    30    39 1   
@<TRIPOS>SUBSTRUCTURE
     1 LPZ         1 TEMP              0 ****  ****    0 ROOT
