@<TRIPOS>MOLECULE
LPZ
   39    40     1     0     0
SMALL
No Charge or Current Charge


@<TRIPOS>ATOM
      1 N1          -4.9570    -0.8040     0.1690 nx         1 LPZ      -0.659000
      2 C4           2.7500     0.4170     0.0710 ca         1 LPZ       0.112100
      3 C5           3.8650     1.2700     0.0930 ca         1 LPZ      -0.159000
      4 C6           5.1670     0.7410     0.0920 ca         1 LPZ      -0.073000
      5 C7           0.2840     0.2030     0.0530 c3         1 LPZ       0.096600
      6 C8          -0.9950     1.0810     0.0580 c          1 LPZ       0.608100
      7 C10         -3.7370    -1.6670    -0.1560 c6         1 LPZ       0.074100
      8 C13         -6.2780    -1.4870    -0.2080 c3         1 LPZ       0.073900
      9 N           -2.2550     0.4360    -0.0680 n          1 LPZ      -0.442800
     10 O            1.4970     0.9930     0.0730 os         1 LPZ      -0.314100
     11 C1           5.3650    -0.6520     0.0710 ca         1 LPZ      -0.089300
     12 C11         -4.7870     0.5580    -0.5060 c6         1 LPZ       0.074100
     13 C12         -3.5010     1.2720    -0.0310 c6         1 LPZ       0.077500
     14 C2           4.2490    -1.5100     0.0470 ca         1 LPZ      -0.073000
     15 C3           2.9460    -0.9820     0.0470 ca         1 LPZ      -0.159000
     16 C9          -2.4200    -1.0060     0.3190 c6         1 LPZ       0.077500
     17 O1          -0.9330     2.3050     0.1140 o          1 LPZ      -0.507100
     18 H1          -4.9770    -0.6500     1.2060 hn         1 LPZ       0.500000
     19 H2           3.7190     2.3470     0.1100 ha         1 LPZ       0.117500
     20 H3           6.0220     1.4150     0.1070 ha         1 LPZ       0.120000
     21 H4           0.2410    -0.4520     0.9320 h1         1 LPZ       0.048700
     22 H5           0.2500    -0.4220    -0.8480 h1         1 LPZ       0.048700
     23 H6          -3.8710    -2.6500     0.3090 hx         1 LPZ       0.107450
     24 H7          -3.7190    -1.8110    -1.2410 hx         1 LPZ       0.107450
     25 H8          -6.3660    -2.4410     0.3180 hx         1 LPZ       0.101700
     26 H9          -7.1190    -0.8450     0.0660 hx         1 LPZ       0.101700
     27 H10         -6.3010    -1.6670    -1.2860 hx         1 LPZ       0.101700
     28 H11          7.1370    -1.3630    -0.9590 hc         1 LPZ       0.048367
     29 H12          7.4780    -0.5660     0.5860 hc         1 LPZ       0.048367
     30 H13          6.8110    -2.2020     0.5670 hc         1 LPZ       0.048367
     31 H14         -4.7500     0.3860    -1.5870 hx         1 LPZ       0.107450
     32 H15         -5.6740     1.1660    -0.2950 hx         1 LPZ       0.107450
     33 H16         -3.6550     1.6220     1.0000 h1         1 LPZ       0.094200
     34 H17         -3.3630     2.1690    -0.6510 h1         1 LPZ       0.094200
     35 H18          4.3910    -2.5880     0.0260 ha         1 LPZ       0.120000
     36 H19          2.1060    -1.6700     0.0290 ha         1 LPZ       0.117500
     37 H20         -2.3690    -1.0810     1.4160 h1         1 LPZ       0.094200
     38 H21         -1.5930    -1.6090    -0.0800 h1         1 LPZ       0.094200
     39 C            6.7740    -1.2270     0.0670 c3         1 LPZ      -0.047800
@<TRIPOS>BOND
     1     1     7 1   
     2     1     8 1   
     3     1    12 1   
     4     1    18 1   
     5     2     3 ar  
     6     2    10 1   
     7     2    15 ar  
     8     3     4 ar  
     9     3    19 1   
    10     4    11 ar  
    11     4    20 1   
    12     5     6 1   
    13     5    10 1   
    14     5    21 1   
    15     5    22 1   
    16     6     9 1   
    17     6    17 2   
    18     7    16 1   
    19     7    23 1   
    20     7    24 1   
    21     8    25 1   
    22     8    26 1   
    23     8    27 1   
    24     9    13 1   
    25     9    16 1   
    26    11    14 ar  
    27    11    39 1   
    28    12    13 1   
    29    12    31 1   
    30    12    32 1   
    31    13    33 1   
    32    13    34 1   
    33    14    15 ar  
    34    14    35 1   
    35    15    36 1   
    36    16    37 1   
    37    16    38 1   
    38    28    39 1   
    39    29    39 1   
    40    30    39 1   
@<TRIPOS>SUBSTRUCTURE
     1 LPZ         1 TEMP              0 ****  ****    0 ROOT
