@<TRIPOS>MOLECULE
LQ0
   35    37     1     0     0
SMALL
No Charge or Current Charge


@<TRIPOS>ATOM
      1 N1           7.4910     0.8310    21.6990 ns         1 LQ0      -0.166000
      2 C4           6.0060     2.0630    20.1090 ca         1 LQ0       0.352900
      3 C5           6.9230     1.0220    20.4050 ca         1 LQ0      -0.100000
      4 C6           7.4660     1.6040    22.8540 c          1 LQ0       0.575100
      5 C7           8.2240     0.9920    24.0380 c3         1 LQ0      -0.007400
      6 C8          10.7160     1.6120    23.8070 cc         1 LQ0      -0.150100
      7 C10         11.3970    -0.4260    22.9140 ca         1 LQ0      -0.092800
      8 C13         10.0420    -2.7820    22.3840 ca         1 LQ0       0.141000
      9 C15         10.0610    -0.5120    23.2000 ca         1 LQ0      -0.028200
     10 N            5.4590     2.2490    18.8840 nb         1 LQ0      -0.651000
     11 N2           9.6390     0.7070    23.7270 na         1 LQ0      -0.080700
     12 C1           7.2790     0.1310    19.3670 ca         1 LQ0      -0.059300
     13 C11         12.1220    -1.4850    22.3560 ca         1 LQ0      -0.050000
     14 C2           6.7070     0.3320    18.0980 ca         1 LQ0      -0.154000
     15 C9          11.7960     0.9030    23.3010 cd         1 LQ0      -0.224200
     16 C12         11.4220    -2.6800    22.0860 ca         1 LQ0      -0.133000
     17 C14          9.3440    -1.6940    22.9500 ca         1 LQ0      -0.118000
     18 C            8.2560    -1.0190    19.5940 c3         1 LQ0      -0.051800
     19 O            6.9050     2.6900    22.9360 o          1 LQ0      -0.540100
     20 C3           5.8110     1.3940    17.9000 ca         1 LQ0       0.333900
     21 H1           8.0310    -0.0210    21.7860 hn         1 LQ0       0.153000
     22 H2           5.6790     2.7720    20.8660 h4         1 LQ0       0.035100
     23 H3           8.1790     1.6980    24.8750 h1         1 LQ0       0.074700
     24 H4           7.7130     0.0710    24.3410 h1         1 LQ0       0.074700
     25 H5          10.6260     2.6270    24.1840 h4         1 LQ0       0.211000
     26 H6          13.1820    -1.3890    22.1360 ha         1 LQ0       0.120000
     27 H7           6.9490    -0.3240    17.2670 ha         1 LQ0       0.124000
     28 H8          12.8040     1.3030    23.2060 ha         1 LQ0       0.209000
     29 H9          11.9440    -3.5270    21.6500 ha         1 LQ0       0.127000
     30 H10          8.2850    -1.7840    23.1770 ha         1 LQ0       0.126000
     31 H11          9.2090    -0.6570    19.9980 hc         1 LQ0       0.046700
     32 H12          7.8440    -1.7500    20.3000 hc         1 LQ0       0.046700
     33 H13          8.4780    -1.5530    18.6630 hc         1 LQ0       0.046700
     34 H14          5.3590     1.5630    16.9240 h4         1 LQ0       0.023100
     35 Cl           9.1850    -4.2770    22.0380 cl         1 LQ0      -0.213000
@<TRIPOS>BOND
     1     1     3 1   
     2     1     4 1   
     3     1    21 1   
     4     2     3 ar  
     5     2    10 ar  
     6     2    22 1   
     7     3    12 ar  
     8     4     5 1   
     9     4    19 2   
    10     5    11 1   
    11     5    23 1   
    12     5    24 1   
    13     6    11 1   
    14     6    15 2   
    15     6    25 1   
    16     7     9 ar  
    17     7    13 ar  
    18     7    15 1   
    19     8    16 ar  
    20     8    17 ar  
    21     8    35 1   
    22     9    11 1   
    23     9    17 ar  
    24    10    20 ar  
    25    12    14 ar  
    26    12    18 1   
    27    13    16 ar  
    28    13    26 1   
    29    14    20 ar  
    30    14    27 1   
    31    15    28 1   
    32    16    29 1   
    33    17    30 1   
    34    18    31 1   
    35    18    32 1   
    36    18    33 1   
    37    20    34 1   
@<TRIPOS>SUBSTRUCTURE
     1 LQ0         1 TEMP              0 ****  ****    0 ROOT
