@<TRIPOS>MOLECULE
LQ0
   35    37     1     0     0
SMALL
abcg2


@<TRIPOS>ATOM
      1 N1           7.2110    -0.4740    20.8260 ns         1 LQ0      -0.166000
      2 C4           7.3760     0.5270    18.6190 ca         1 LQ0       0.352900
      3 C5           6.6250     0.2070    19.7440 ca         1 LQ0      -0.100000
      4 C6           8.2950    -0.0290    21.5050 c          1 LQ0       0.575100
      5 C7           8.6710    -0.9190    22.6860 c3         1 LQ0      -0.007400
      6 C8           9.7320     0.4490    24.4700 cc         1 LQ0      -0.150100
      7 C10         11.8930     0.1840    23.9530 ca         1 LQ0      -0.092800
      8 C13         13.0490    -1.3200    21.9410 ca         1 LQ0       0.141000
      9 C15         11.1110    -0.5740    23.0550 ca         1 LQ0      -0.028200
     10 N            6.8850     1.1730    17.5720 nb         1 LQ0      -0.651000
     11 N2           9.7990    -0.4110    23.4030 na         1 LQ0      -0.080700
     12 C1           5.2750     0.5620    19.7860 ca         1 LQ0      -0.059300
     13 C11         13.2840     0.1680    23.8200 ca         1 LQ0      -0.050000
     14 C2           4.7680     1.2220    18.6720 ca         1 LQ0      -0.154000
     15 C9          10.9830     0.8300    24.8470 cd         1 LQ0      -0.224200
     16 C12         13.8600    -0.5820    22.8140 ca         1 LQ0      -0.133000
     17 C14         11.6730    -1.3330    22.0310 ca         1 LQ0      -0.118000
     18 C            4.4210     0.2530    20.9750 c3         1 LQ0      -0.051800
     19 O            8.9150     0.9740    21.2210 o          1 LQ0      -0.540100
     20 C3           5.6010     1.5100    17.6050 ca         1 LQ0       0.333900
     21 H1           6.7200    -1.2790    21.1910 hn         1 LQ0       0.153000
     22 H2           8.4210     0.2400    18.5690 h4         1 LQ0       0.035100
     23 H3           7.8220    -0.9990    23.3680 h1         1 LQ0       0.074700
     24 H4           8.8740    -1.9330    22.3320 h1         1 LQ0       0.074700
     25 H5           8.7740     0.7150    24.8880 h4         1 LQ0       0.211000
     26 H6          13.9110     0.7380    24.4930 ha         1 LQ0       0.120000
     27 H7           3.7280     1.5220    18.6430 ha         1 LQ0       0.124000
     28 H8          11.2290     1.4860    25.6660 ha         1 LQ0       0.209000
     29 H9          14.9340    -0.6040    22.6970 ha         1 LQ0       0.127000
     30 H10         11.0710    -1.9050    21.3370 ha         1 LQ0       0.126000
     31 H11          4.2760    -0.8240    21.0910 hc         1 LQ0       0.046700
     32 H12          4.8800     0.6160    21.8950 hc         1 LQ0       0.046700
     33 H13          3.4390     0.7100    20.8780 hc         1 LQ0       0.046700
     34 H14          5.2130     2.0330    16.7380 h4         1 LQ0       0.023100
     35 CL          13.8150    -2.2500    20.6880 cl         1 LQ0      -0.213000
@<TRIPOS>BOND
     1     1     3 1   
     2     1     4 1   
     3     1    21 1   
     4     2     3 ar  
     5     2    10 ar  
     6     2    22 1   
     7     3    12 ar  
     8     4     5 1   
     9     4    19 2   
    10     5    11 1   
    11     5    23 1   
    12     5    24 1   
    13     6    11 1   
    14     6    15 2   
    15     6    25 1   
    16     7     9 ar  
    17     7    13 ar  
    18     7    15 1   
    19     8    16 ar  
    20     8    17 ar  
    21     8    35 1   
    22     9    11 1   
    23     9    17 ar  
    24    10    20 ar  
    25    12    14 ar  
    26    12    18 1   
    27    13    16 ar  
    28    13    26 1   
    29    14    20 ar  
    30    14    27 1   
    31    15    28 1   
    32    16    29 1   
    33    17    30 1   
    34    18    31 1   
    35    18    32 1   
    36    18    33 1   
    37    20    34 1   
@<TRIPOS>SUBSTRUCTURE
     1 LQ0         1 TEMP              0 ****  ****    0 ROOT
