@<TRIPOS>MOLECULE
LQ2
   18    18     1     0     0
SMALL
bcc


@<TRIPOS>ATOM
      1 C4          11.7970     2.5950    18.8240 ca         1 LQ2      -0.109600
      2 C2          14.0090     1.8350    19.4370 ca         1 LQ2      -0.120500
      3 C3          12.7330     1.5740    18.9660 ca         1 LQ2      -0.119500
      4 C1          14.3900     3.1340    19.7680 ca         1 LQ2      -0.191600
      5 C7          13.4540     4.1580    19.6400 ca         1 LQ2      -0.120500
      6 C6          12.1770     3.8880    19.1740 ca         1 LQ2      -0.119500
      7 C5          10.3900     2.3080    18.2990 c          1 LQ2       0.923200
      8 O1          10.1160     1.1130    18.0830 o          1 LQ2      -0.820800
      9 O2           9.6530     3.2970    18.1320 o          1 LQ2      -0.820800
     10 N           16.2700     4.5990    20.1370 nt         1 LQ2      -0.681000
     11 C           15.7760     3.3580    20.2820 c          1 LQ2       0.689700
     12 O           16.4100     2.4520    20.8060 o          1 LQ2      -0.635100
     13 H1          14.7200     1.0260    19.5390 ha         1 LQ2       0.113500
     14 H2          12.4600     0.5610    18.7030 ha         1 LQ2       0.147500
     15 H3          13.7000     5.1750    19.9220 ha         1 LQ2       0.113500
     16 H4          11.4620     4.6940    19.0850 ha         1 LQ2       0.147500
     17 H6          17.2070     4.8010    20.4450 hn         1 LQ2       0.301500
     18 H7          15.8110     5.3030    19.5850 hn         1 LQ2       0.301500
@<TRIPOS>BOND
     1     1     3 ar  
     2     1     6 ar  
     3     1     7 1   
     4     2     3 ar  
     5     2     4 ar  
     6     2    13 1   
     7     3    14 1   
     8     4     5 ar  
     9     4    11 1   
    10     5     6 ar  
    11     5    15 1   
    12     6    16 1   
    13     7     8 1   
    14     7     9 1   
    15    10    11 1   
    16    10    17 1   
    17    10    18 1   
    18    11    12 2   
@<TRIPOS>SUBSTRUCTURE
     1 LQ2         1 TEMP              0 ****  ****    0 ROOT
