@<TRIPOS>MOLECULE
LQ2
   18    18     1     0     0
SMALL
No Charge or Current Charge


@<TRIPOS>ATOM
      1 C4          11.7700     2.5840    18.8100 ca         1 LQ2      -0.109600
      2 C2          13.9950     1.7900    19.4630 ca         1 LQ2      -0.102500
      3 C3          12.6830     1.5290    19.0340 ca         1 LQ2      -0.101500
      4 C1          14.4390     3.1120    19.6840 ca         1 LQ2      -0.191600
      5 C7          13.5260     4.1700    19.4610 ca         1 LQ2      -0.102500
      6 C6          12.2140     3.9080    19.0310 ca         1 LQ2      -0.101500
      7 C5          10.3470     2.3030    18.3440 c          1 LQ2       0.712600
      8 O1          10.0080     1.1410    18.1650 o          1 LQ2      -0.715500
      9 O2           9.5920     3.2480    18.1630 o          1 LQ2      -0.715500
     10 N           16.2470     4.6400    20.3480 nt         1 LQ2      -0.614000
     11 C           15.8600     3.3630    20.1480 c          1 LQ2       0.622700
     12 O           16.6620     2.4650    20.3460 o          1 LQ2      -0.635100
     13 H1          14.6700     0.9520    19.6250 ha         1 LQ2       0.095500
     14 H2          12.3770     0.4970    18.8740 ha         1 LQ2       0.129500
     15 H3          13.8190     5.2050    19.6160 ha         1 LQ2       0.095500
     16 H4          11.5380     4.7450    18.8690 ha         1 LQ2       0.129500
     17 H6          17.1900     4.8260    20.6570 hn         1 LQ2       0.301500
     18 H7          15.5990     5.3950    20.1890 hn         1 LQ2       0.301500
@<TRIPOS>BOND
     1     1     3 ar  
     2     1     6 ar  
     3     1     7 1   
     4     2     3 ar  
     5     2     4 ar  
     6     2    13 1   
     7     3    14 1   
     8     4     5 ar  
     9     4    11 1   
    10     5     6 ar  
    11     5    15 1   
    12     6    16 1   
    13     7     8 1   
    14     7     9 1   
    15    10    11 1   
    16    10    17 1   
    17    10    18 1   
    18    11    12 2   
@<TRIPOS>SUBSTRUCTURE
     1 LQ2         1 TEMP              0 ****  ****    0 ROOT
