@<TRIPOS>MOLECULE
LQ3
   16    16     1     0     0
SMALL
abcg2


@<TRIPOS>ATOM
      1 N1          68.5550     2.1440    83.7920 ne         1 LQ3      -0.614100
      2 C4          66.5280     1.3510    82.5890 ce         1 LQ3      -0.271200
      3 C5          67.8520     1.0870    83.1770 c          1 LQ3       0.671700
      4 C6          67.9720     3.2560    83.9660 c2         1 LQ3       0.467200
      5 F1          66.4300     6.3020    81.4980 f          1 LQ3      -0.114000
      6 C1          66.8520     5.0830    81.8590 c3         1 LQ3       0.387300
      7 F2          68.2120     5.1140    81.8580 f          1 LQ3      -0.114000
      8 C2          66.5370     3.5650    83.6340 c6         1 LQ3       0.094200
      9 C3          65.9110     2.5120    82.7850 c2         1 LQ3      -0.221200
     10 O2          68.3620    -0.0060    83.1330 o          1 LQ3      -0.461100
     11 H1          66.0720     0.5560    82.0140 ha         1 LQ3       0.214000
     12 H2          68.5360     4.0590    84.4360 h4         1 LQ3       0.049800
     13 H3          66.5330     4.3440    81.1190 h3         1 LQ3       0.060700
     14 H4          66.0040     3.5900    84.5940 h1         1 LQ3       0.119700
     15 H5          64.9250     2.7070    82.3790 ha         1 LQ3       0.203000
     16 O1          66.3860     4.8760    83.1150 os         1 LQ3      -0.471000
@<TRIPOS>BOND
     1     1     3 1   
     2     1     4 2   
     3     2     3 1   
     4     2     9 2   
     5     2    11 1   
     6     3    10 2   
     7     4     8 1   
     8     4    12 1   
     9     5     6 1   
    10     6     7 1   
    11     6    13 1   
    12     6    16 1   
    13     8     9 1   
    14     8    14 1   
    15     8    16 1   
    16     9    15 1   
@<TRIPOS>SUBSTRUCTURE
     1 LQ3         1 TEMP              0 ****  ****    0 ROOT
