@<TRIPOS>MOLECULE
LQ3
   16    16     1     0     0
SMALL
No Charge or Current Charge


@<TRIPOS>ATOM
      1 N1          68.5420     2.1750    83.7850 ne         1 LQ3      -0.614100
      2 C4          66.5150     1.4320    82.5970 ce         1 LQ3      -0.271200
      3 C5          67.9410     1.2000    82.9790 c          1 LQ3       0.671700
      4 C6          67.8990     3.2520    84.1560 c2         1 LQ3       0.467200
      5 F1          66.5820     6.1360    81.1650 f          1 LQ3      -0.114000
      6 C1          66.9490     4.9770    81.7540 c3         1 LQ3       0.387300
      7 F2          68.3000     4.9990    81.8250 f          1 LQ3      -0.114000
      8 C2          66.4560     3.6180    83.7760 c6         1 LQ3       0.094200
      9 C3          65.8060     2.5260    82.9550 c2         1 LQ3      -0.221200
     10 O2          68.5340     0.2020    82.6060 o          1 LQ3      -0.461100
     11 H1          66.0670     0.6420    81.9970 ha         1 LQ3       0.214000
     12 H2          68.4240     3.9660    84.7850 h4         1 LQ3       0.049800
     13 H3          66.6350     4.1440    81.1160 h3         1 LQ3       0.060700
     14 H4          65.8970     3.7210    84.7180 h1         1 LQ3       0.119700
     15 H5          64.7610     2.6660    82.6660 ha         1 LQ3       0.203000
     16 O1          66.3590     4.8830    83.0680 os         1 LQ3      -0.471000
@<TRIPOS>BOND
     1     1     3 1   
     2     1     4 2   
     3     2     3 1   
     4     2     9 2   
     5     2    11 1   
     6     3    10 2   
     7     4     8 1   
     8     4    12 1   
     9     5     6 1   
    10     6     7 1   
    11     6    13 1   
    12     6    16 1   
    13     8     9 1   
    14     8    14 1   
    15     8    16 1   
    16     9    15 1   
@<TRIPOS>SUBSTRUCTURE
     1 LQ3         1 TEMP              0 ****  ****    0 ROOT
