@<TRIPOS>MOLECULE
LQ4
   42    43     1     0     0
SMALL
bcc


@<TRIPOS>ATOM
      1 C12        128.5690   133.1500   153.6670 c6         1 LQ4      -0.076200
      2 C13        127.1680   133.6350   153.5430 c2         1 LQ4      -0.098200
      3 C14        126.6140   134.3800   154.4980 ce         1 LQ4      -0.239200
      4 C01        124.8430   132.7580   161.5850 c3         1 LQ4       0.121700
      5 C03        126.9060   133.6660   162.3170 ca         1 LQ4       0.151600
      6 C04        127.3800   133.8150   161.0210 ca         1 LQ4      -0.223000
      7 C05        128.6520   134.3470   160.8030 ca         1 LQ4      -0.004800
      8 C06        129.2090   134.5190   159.4650 ce         1 LQ4      -0.032200
      9 C07        128.6420   134.1490   158.3100 cf         1 LQ4      -0.215200
     10 O09        130.5610   134.5180   156.9880 o          1 LQ4      -0.568100
     11 N10        128.6220   134.2600   155.8560 n          1 LQ4      -0.526400
     12 C11        129.3590   134.0390   154.6060 c6         1 LQ4       0.099000
     13 C15        127.2970   134.6690   155.7690 c          1 LQ4       0.717700
     14 O16        126.7190   135.2190   156.6850 o          1 LQ4      -0.594500
     15 C17        129.4430   134.7310   161.8850 ca         1 LQ4      -0.223000
     16 C18        128.9740   134.5780   163.1860 ca         1 LQ4       0.151600
     17 O19        129.6640   134.9110   164.2890 os         1 LQ4      -0.300900
     18 C20        130.9490   135.4800   164.1350 c3         1 LQ4       0.121700
     19 C21        127.7060   134.0350   163.4080 ca         1 LQ4       0.039100
     20 O22        127.2560   133.8490   164.6730 os         1 LQ4      -0.305900
     21 C23        126.5640   134.9620   165.2260 c3         1 LQ4       0.126700
     22 H121       128.5660   132.1110   154.0160 hc         1 LQ4       0.068200
     23 H122       129.0570   133.1430   152.6920 hc         1 LQ4       0.068200
     24 H1         126.5940   133.3610   152.6660 ha         1 LQ4       0.137000
     25 H141       125.5980   134.7450   154.4210 ha         1 LQ4       0.157000
     26 H011       123.9340   132.3930   162.0570 h1         1 LQ4       0.042533
     27 H012       124.5850   133.5830   160.9160 h1         1 LQ4       0.042533
     28 H013       125.2820   131.9490   160.9960 h1         1 LQ4       0.042533
     29 H041       126.7640   133.5300   160.1800 ha         1 LQ4       0.142500
     30 H061       130.1780   135.0060   159.4310 ha         1 LQ4       0.140000
     31 H071       127.6770   133.6640   158.2870 ha         1 LQ4       0.150000
     32 H111       130.3150   133.5840   154.8450 h1         1 LQ4       0.064700
     33 H112       129.5630   134.9990   154.1250 h1         1 LQ4       0.064700
     34 H171       130.4240   135.1430   161.6920 ha         1 LQ4       0.142500
     35 H201       131.3170   135.6830   165.1370 h1         1 LQ4       0.042533
     36 H202       131.6420   134.7960   163.6390 h1         1 LQ4       0.042533
     37 H203       130.9170   136.4180   163.5750 h1         1 LQ4       0.042533
     38 H232       126.2660   134.6840   166.2350 h1         1 LQ4       0.034367
     39 H231       127.2000   135.8490   165.2790 h1         1 LQ4       0.034367
     40 H233       125.6680   135.2070   164.6510 h1         1 LQ4       0.034367
     41 C08        129.3580   134.3540   157.0390 c          1 LQ4       0.686300
     42 O02        125.6970   133.1730   162.6320 os         1 LQ4      -0.300900
@<TRIPOS>BOND
     1     1     2 1   
     2     1    12 1   
     3     1    22 1   
     4     1    23 1   
     5     2     3 2   
     6     2    24 1   
     7     3    13 1   
     8     3    25 1   
     9     4    26 1   
    10     4    27 1   
    11     4    28 1   
    12     4    42 1   
    13     5     6 ar  
    14     5    19 ar  
    15     5    42 1   
    16     6     7 ar  
    17     6    29 1   
    18     7     8 1   
    19     7    15 ar  
    20     8     9 2   
    21     8    30 1   
    22     9    31 1   
    23     9    41 1   
    24    10    41 2   
    25    11    12 1   
    26    11    13 1   
    27    11    41 1   
    28    12    32 1   
    29    12    33 1   
    30    13    14 2   
    31    15    16 ar  
    32    15    34 1   
    33    16    17 1   
    34    16    19 ar  
    35    17    18 1   
    36    18    35 1   
    37    18    36 1   
    38    18    37 1   
    39    19    20 1   
    40    20    21 1   
    41    21    38 1   
    42    21    39 1   
    43    21    40 1   
@<TRIPOS>SUBSTRUCTURE
     1 LQ4         1 TEMP              0 ****  ****    0 ROOT
