@<TRIPOS>MOLECULE
LQ4
   42    43     1     0     0
SMALL
No Charge or Current Charge


@<TRIPOS>ATOM
      1 C12        129.0160   133.0830   153.4930 c6         1 LQ4      -0.076200
      2 C13        127.5270   133.0790   153.2520 c2         1 LQ4      -0.148200
      3 C14        126.6830   133.5220   154.2050 ce         1 LQ4      -0.289200
      4 C01        124.4080   133.1750   161.4570 c3         1 LQ4       0.144900
      5 C03        126.5900   133.9870   162.3140 ca         1 LQ4       0.151600
      6 C04        127.0930   134.1750   161.0100 ca         1 LQ4      -0.205000
      7 C05        128.3960   134.6570   160.8080 ca         1 LQ4      -0.004800
      8 C06        128.9470   134.8640   159.4360 ce         1 LQ4      -0.082200
      9 C07        128.4660   134.4080   158.2390 cf         1 LQ4      -0.265200
     10 O09        130.2220   135.2070   156.9060 o          1 LQ4      -0.568100
     11 N10        128.5310   134.2380   155.7080 n          1 LQ4      -0.392400
     12 C11        129.4130   134.1850   154.4990 c6         1 LQ4       0.099000
     13 C15        127.1390   134.0730   155.5120 c          1 LQ4       0.575200
     14 O16        126.3070   134.4000   156.3420 o          1 LQ4      -0.519000
     15 C17        129.1940   134.9610   161.9220 ca         1 LQ4      -0.205000
     16 C18        128.7160   134.7830   163.2420 ca         1 LQ4       0.151600
     17 O19        129.5280   135.0880   164.3220 os         1 LQ4      -0.324100
     18 C20        130.8690   135.5920   164.1850 c3         1 LQ4       0.144900
     19 C21        127.3910   134.2860   163.4430 ca         1 LQ4       0.039100
     20 O22        126.8050   134.0670   164.6930 os         1 LQ4      -0.329100
     21 C23        127.4440   134.3030   165.9600 c3         1 LQ4       0.149900
     22 H121       129.3180   132.1020   153.8860 hc         1 LQ4       0.068200
     23 H122       129.5580   133.2240   152.5470 hc         1 LQ4       0.068200
     24 H1         127.1670   132.6780   152.3000 ha         1 LQ4       0.187000
     25 H141       125.6040   133.4920   154.0600 ha         1 LQ4       0.207000
     26 H011       123.4520   132.8190   161.8590 h1         1 LQ4       0.042533
     27 H012       124.2060   134.0520   160.8280 h1         1 LQ4       0.042533
     28 H013       124.8300   132.3790   160.8300 h1         1 LQ4       0.042533
     29 H041       126.4740   133.9570   160.1470 ha         1 LQ4       0.124500
     30 H061       129.8630   135.4580   159.4210 ha         1 LQ4       0.190000
     31 H071       127.5790   133.7870   158.2410 ha         1 LQ4       0.200000
     32 H111       130.4610   134.0210   154.7870 h1         1 LQ4       0.064700
     33 H112       129.3630   135.1610   153.9960 h1         1 LQ4       0.064700
     34 H171       130.1970   135.3350   161.7420 ha         1 LQ4       0.124500
     35 H201       131.3130   135.7600   165.1740 h1         1 LQ4       0.042533
     36 H202       131.5030   134.8760   163.6470 h1         1 LQ4       0.042533
     37 H203       130.8740   136.5480   163.6450 h1         1 LQ4       0.042533
     38 H232       126.7610   134.0470   166.7790 h1         1 LQ4       0.034367
     39 H231       128.3430   133.6840   166.0680 h1         1 LQ4       0.034367
     40 H233       127.7160   135.3610   166.0710 h1         1 LQ4       0.034367
     41 C08        129.1260   134.6610   156.9210 c          1 LQ4       0.619300
     42 O02        125.3050   133.5110   162.5300 os         1 LQ4      -0.324100
@<TRIPOS>BOND
     1     1     2 1   
     2     1    12 1   
     3     1    22 1   
     4     1    23 1   
     5     2     3 2   
     6     2    24 1   
     7     3    13 1   
     8     3    25 1   
     9     4    26 1   
    10     4    27 1   
    11     4    28 1   
    12     4    42 1   
    13     5     6 ar  
    14     5    19 ar  
    15     5    42 1   
    16     6     7 ar  
    17     6    29 1   
    18     7     8 1   
    19     7    15 ar  
    20     8     9 2   
    21     8    30 1   
    22     9    31 1   
    23     9    41 1   
    24    10    41 2   
    25    11    12 1   
    26    11    13 1   
    27    11    41 1   
    28    12    32 1   
    29    12    33 1   
    30    13    14 2   
    31    15    16 ar  
    32    15    34 1   
    33    16    17 1   
    34    16    19 ar  
    35    17    18 1   
    36    18    35 1   
    37    18    36 1   
    38    18    37 1   
    39    19    20 1   
    40    20    21 1   
    41    21    38 1   
    42    21    39 1   
    43    21    40 1   
@<TRIPOS>SUBSTRUCTURE
     1 LQ4         1 TEMP              0 ****  ****    0 ROOT
