@<TRIPOS>MOLECULE
LQ5
   62    65     1     0     0
SMALL
No Charge or Current Charge


@<TRIPOS>ATOM
      1 C02          5.5270     0.1950     1.8700 ca         1 LQ5      -0.080000
      2 C03          4.1380     0.2910     1.6640 ca         1 LQ5      -0.133500
      3 C04          3.6300     0.8900     0.4890 ca         1 LQ5      -0.014000
      4 C06          5.9240     1.2970    -0.2600 ca         1 LQ5      -0.080000
      5 C07          6.4210     0.6840     0.9050 ca         1 LQ5       0.093100
      6 O08          7.7750     0.5950     1.1410 os         1 LQ5      -0.362400
      7 C09          8.6780     0.1780     0.1890 ca         1 LQ5       0.389300
      8 C10         10.0050     0.6130     0.3040 ca         1 LQ5      -0.301000
      9 C11         10.9270     0.1690    -0.6560 ca         1 LQ5       0.166900
     10 N12         10.5540    -0.6550    -1.6520 nb         1 LQ5      -0.270000
     11 C13          9.2640    -1.0180    -1.6610 ca         1 LQ5       0.414900
     12 N17          8.8820    -1.8480    -2.6560 nv         1 LQ5      -1.066900
     13 C18          1.1030     0.6100     0.8890 c          1 LQ5       0.670100
     14 N19         -0.0520     0.9910     0.2210 ns         1 LQ5      -0.163000
     15 C20         -1.4330     0.8040     0.5090 ca         1 LQ5      -0.005000
     16 C21         -1.9090     0.1440     1.6570 ca         1 LQ5      -0.108000
     17 C22         -3.2880     0.0030     1.8680 ca         1 LQ5      -0.091000
     18 C23         -4.2250     0.5090     0.9440 ca         1 LQ5      -0.053300
     19 C24         -3.7610     1.1840    -0.2210 ca         1 LQ5      -0.139300
     20 C25         -4.7350     1.7800    -1.2630 c3         1 LQ5       0.355300
     21 F26         -4.1010     2.3500    -2.3140 f          1 LQ5      -0.112333
     22 F27         -5.5600     0.8480    -1.7880 f          1 LQ5      -0.112333
     23 F28         -5.5130     2.7490    -0.7280 f          1 LQ5      -0.112333
     24 C29         -2.3630     1.3180    -0.4130 ca         1 LQ5      -0.136000
     25 C30         -5.7150     0.3050     1.2610 c3         1 LQ5       0.211100
     26 N31         -6.3310    -0.8550     0.5710 n3         1 LQ5      -0.715600
     27 C32         -7.8080    -0.9310     0.7870 c6         1 LQ5       0.166300
     28 N30          8.3040    -0.6570    -0.8030 nb         1 LQ5      -0.322000
     29 C33         -8.4610    -2.1250     0.0200 c6         1 LQ5       0.164300
     30 N34         -7.8290    -3.4350     0.3650 n3         1 LQ5      -0.719600
     31 C26          4.5360     1.3940    -0.4640 ca         1 LQ5      -0.133500
     32 C35         -6.3520    -3.3610     0.1460 c6         1 LQ5       0.164300
     33 C36         -5.6950    -2.1670     0.9090 c6         1 LQ5       0.166300
     34 C37         -8.4550    -4.5750    -0.3370 c3         1 LQ5       0.154100
     35 O39          1.1170    -0.0180     1.9410 o          1 LQ5      -0.601100
     36 N20          2.2410     1.0270     0.2110 ns         1 LQ5      -0.163000
     37 H02          5.9110    -0.2640     2.7770 ha         1 LQ5       0.129500
     38 H03          3.4800    -0.1000     2.4330 ha         1 LQ5       0.128500
     39 H26          4.1650     1.8670    -1.3720 ha         1 LQ5       0.128500
     40 H20          2.0490     1.5260    -0.6480 hn         1 LQ5       0.147000
     41 H06          6.6080     1.7010    -1.0010 ha         1 LQ5       0.129500
     42 H10         10.3080     1.2750     1.1100 ha         1 LQ5       0.148000
     43 H11         11.9730     0.4730    -0.6270 h4         1 LQ5       0.023100
     44 H171         9.5040    -1.9600    -3.4530 hn         1 LQ5       0.501000
     45 H172         7.8870    -1.9630    -2.8350 hn         1 LQ5       0.501000
     46 H19          0.1160     1.5010    -0.6360 hn         1 LQ5       0.150000
     47 H21         -1.2330    -0.2670     2.4000 ha         1 LQ5       0.156000
     48 H29         -1.9800     1.8300    -1.2920 ha         1 LQ5       0.125000
     49 H22         -3.6340    -0.5130     2.7610 ha         1 LQ5       0.120000
     50 H301        -5.8270     0.1830     2.3480 h1         1 LQ5       0.044700
     51 H302        -6.2630     1.2210     1.0100 h1         1 LQ5       0.044700
     52 H321        -8.0270    -1.0420     1.8590 h1         1 LQ5       0.038200
     53 H322        -8.2880     0.0020     0.4550 h1         1 LQ5       0.038200
     54 H361        -4.6240    -2.1510     0.6600 h1         1 LQ5       0.038200
     55 H362        -5.7720    -2.3560     1.9900 h1         1 LQ5       0.038200
     56 H331        -9.5360    -2.1470     0.2550 h1         1 LQ5       0.039200
     57 H332        -8.3730    -1.9350    -1.0600 h1         1 LQ5       0.039200
     58 H351        -5.8710    -4.2940     0.4750 h1         1 LQ5       0.039200
     59 H352        -6.1350    -3.2490    -0.9270 h1         1 LQ5       0.039200
     60 H371        -8.3350    -4.4810    -1.4250 h1         1 LQ5       0.030367
     61 H372        -7.9990    -5.5230    -0.0210 h1         1 LQ5       0.030367
     62 H373        -9.5290    -4.6260    -0.1130 h1         1 LQ5       0.030367
@<TRIPOS>BOND
     1     1     2 ar  
     2     1     5 ar  
     3     1    37 1   
     4     2     3 ar  
     5     2    38 1   
     6     3    31 ar  
     7     3    36 1   
     8     4     5 ar  
     9     4    31 ar  
    10     4    41 1   
    11     5     6 1   
    12     6     7 1   
    13     7     8 ar  
    14     7    28 ar  
    15     8     9 ar  
    16     8    42 1   
    17     9    10 ar  
    18     9    43 1   
    19    10    11 ar  
    20    11    12 1   
    21    11    28 ar  
    22    12    44 1   
    23    12    45 1   
    24    13    14 1   
    25    13    35 2   
    26    13    36 1   
    27    14    15 1   
    28    14    46 1   
    29    15    16 ar  
    30    15    24 ar  
    31    16    17 ar  
    32    16    47 1   
    33    17    18 ar  
    34    17    49 1   
    35    18    19 ar  
    36    18    25 1   
    37    19    20 1   
    38    19    24 ar  
    39    20    21 1   
    40    20    22 1   
    41    20    23 1   
    42    24    48 1   
    43    25    26 1   
    44    25    50 1   
    45    25    51 1   
    46    26    27 1   
    47    26    33 1   
    48    27    29 1   
    49    27    52 1   
    50    27    53 1   
    51    29    30 1   
    52    29    56 1   
    53    29    57 1   
    54    30    32 1   
    55    30    34 1   
    56    31    39 1   
    57    32    33 1   
    58    32    58 1   
    59    32    59 1   
    60    33    54 1   
    61    33    55 1   
    62    34    60 1   
    63    34    61 1   
    64    34    62 1   
    65    36    40 1   
@<TRIPOS>SUBSTRUCTURE
     1 LQ5         1 TEMP              0 ****  ****    0 ROOT
