@<TRIPOS>MOLECULE
LQ5
   62    65     1     0     0
SMALL
abcg2


@<TRIPOS>ATOM
      1 C02          5.3410    -0.1890     1.2020 ca         1 LQ5      -0.080000
      2 C03          3.9940    -0.1040     0.8810 ca         1 LQ5      -0.133500
      3 C04          3.5190     0.9870     0.1530 ca         1 LQ5      -0.014000
      4 C06          5.7660     1.8770     0.0580 ca         1 LQ5      -0.080000
      5 C07          6.2190     0.7980     0.7960 ca         1 LQ5       0.093100
      6 O08          7.5430     0.7400     1.1840 os         1 LQ5      -0.362400
      7 C09          8.4400     0.1670     0.3690 ca         1 LQ5       0.389300
      8 C10          9.7730     0.1690     0.7830 ca         1 LQ5      -0.301000
      9 C11         10.6480    -0.4290    -0.0990 ca         1 LQ5       0.166900
     10 N12         10.2810    -0.9750    -1.2520 nb         1 LQ5      -0.270000
     11 C13          8.9770    -0.9200    -1.5330 ca         1 LQ5       0.414900
     12 N17          8.5620    -1.4890    -2.6750 nv         1 LQ5      -1.066900
     13 C18          1.0840     0.7000     0.4460 c          1 LQ5       0.670100
     14 N19         -0.0860     1.0570    -0.1720 ns         1 LQ5      -0.163000
     15 C20         -1.3910     0.8260     0.2530 ca         1 LQ5      -0.005000
     16 C21         -1.7550     0.2020     1.4420 ca         1 LQ5      -0.108000
     17 C22         -3.1010     0.0450     1.7390 ca         1 LQ5      -0.091000
     18 C23         -4.1250     0.4770     0.9070 ca         1 LQ5      -0.053300
     19 C24         -3.7430     1.1130    -0.2820 ca         1 LQ5      -0.139300
     20 C25         -4.7640     1.6880    -1.2240 c3         1 LQ5       0.355300
     21 F26         -4.2060     2.2170    -2.3200 f          1 LQ5      -0.112333
     22 F27         -5.6520     0.7870    -1.6490 f          1 LQ5      -0.112333
     23 F28         -5.4630     2.6800    -0.6450 f          1 LQ5      -0.112333
     24 C29         -2.4040     1.2820    -0.5950 ca         1 LQ5      -0.136000
     25 C30         -5.5530     0.2250     1.3230 c3         1 LQ5       0.211100
     26 N31         -6.1340    -0.9310     0.6670 n3         1 LQ5      -0.715600
     27 C32         -7.5780    -0.9380     0.7890 c6         1 LQ5       0.166300
     28 N30          8.0360    -0.3610    -0.7580 nb         1 LQ5      -0.322000
     29 C33         -8.1720    -2.1130     0.0390 c6         1 LQ5       0.164300
     30 N34         -7.6230    -3.3610     0.5270 n3         1 LQ5      -0.719600
     31 C26          4.4210     1.9710    -0.2530 ca         1 LQ5      -0.133500
     32 C35         -6.1810    -3.3540     0.3980 c6         1 LQ5       0.164300
     33 C36         -5.5790    -2.1800     1.1460 c6         1 LQ5       0.166300
     34 C37         -8.2180    -4.5030    -0.1270 c3         1 LQ5       0.154100
     35 O39          1.1410     0.0650     1.4830 o          1 LQ5      -0.601100
     36 N20          2.1850     1.1340    -0.2400 ns         1 LQ5      -0.163000
     37 H02          5.7000    -1.0380     1.7700 ha         1 LQ5       0.129500
     38 H03          3.3330    -0.8960     1.1930 ha         1 LQ5       0.128500
     39 H26          4.0670     2.8270    -0.8170 ha         1 LQ5       0.128500
     40 H20          2.0380     1.7850    -0.9970 hn         1 LQ5       0.147000
     41 H06          6.4500     2.6520    -0.2620 ha         1 LQ5       0.129500
     42 H10         10.0960     0.6070     1.7150 ha         1 LQ5       0.148000
     43 H11         11.7060    -0.4710     0.1370 h4         1 LQ5       0.023100
     44 H171         9.2400    -1.7920    -3.3520 hn         1 LQ5       0.501000
     45 H172         7.6160    -1.3540    -2.9860 hn         1 LQ5       0.501000
     46 H19         -0.0120     1.5510    -1.0490 hn         1 LQ5       0.150000
     47 H21         -1.0160    -0.1580     2.1370 ha         1 LQ5       0.156000
     48 H29         -2.1170     1.7800    -1.5110 ha         1 LQ5       0.125000
     49 H22         -3.3640    -0.4400     2.6720 ha         1 LQ5       0.120000
     50 H301        -5.5770     0.1190     2.4210 h1         1 LQ5       0.044700
     51 H302        -6.1800     1.0900     1.1030 h1         1 LQ5       0.044700
     52 H321        -7.9010    -0.9840     1.8440 h1         1 LQ5       0.038200
     53 H322        -7.9760    -0.0110     0.3710 h1         1 LQ5       0.038200
     54 H361        -4.4980    -2.1840     0.9910 h1         1 LQ5       0.038200
     55 H362        -5.7500    -2.3090     2.2300 h1         1 LQ5       0.038200
     56 H331        -9.2560    -2.1180     0.1810 h1         1 LQ5       0.039200
     57 H332        -7.9880    -1.9820    -1.0420 h1         1 LQ5       0.039200
     58 H351        -5.7790    -4.2830     0.8090 h1         1 LQ5       0.039200
     59 H352        -5.8660    -3.3060    -0.6600 h1         1 LQ5       0.039200
     60 H371        -8.0410    -4.5240    -1.2140 h1         1 LQ5       0.030367
     61 H372        -7.8170    -5.4260     0.2930 h1         1 LQ5       0.030367
     62 H373        -9.2970    -4.5030     0.0320 h1         1 LQ5       0.030367
@<TRIPOS>BOND
     1     1     2 ar  
     2     1     5 ar  
     3     1    37 1   
     4     2     3 ar  
     5     2    38 1   
     6     3    31 ar  
     7     3    36 1   
     8     4     5 ar  
     9     4    31 ar  
    10     4    41 1   
    11     5     6 1   
    12     6     7 1   
    13     7     8 ar  
    14     7    28 ar  
    15     8     9 ar  
    16     8    42 1   
    17     9    10 ar  
    18     9    43 1   
    19    10    11 ar  
    20    11    12 1   
    21    11    28 ar  
    22    12    44 1   
    23    12    45 1   
    24    13    14 1   
    25    13    35 2   
    26    13    36 1   
    27    14    15 1   
    28    14    46 1   
    29    15    16 ar  
    30    15    24 ar  
    31    16    17 ar  
    32    16    47 1   
    33    17    18 ar  
    34    17    49 1   
    35    18    19 ar  
    36    18    25 1   
    37    19    20 1   
    38    19    24 ar  
    39    20    21 1   
    40    20    22 1   
    41    20    23 1   
    42    24    48 1   
    43    25    26 1   
    44    25    50 1   
    45    25    51 1   
    46    26    27 1   
    47    26    33 1   
    48    27    29 1   
    49    27    52 1   
    50    27    53 1   
    51    29    30 1   
    52    29    56 1   
    53    29    57 1   
    54    30    32 1   
    55    30    34 1   
    56    31    39 1   
    57    32    33 1   
    58    32    58 1   
    59    32    59 1   
    60    33    54 1   
    61    33    55 1   
    62    34    60 1   
    63    34    61 1   
    64    34    62 1   
    65    36    40 1   
@<TRIPOS>SUBSTRUCTURE
     1 LQ5         1 TEMP              0 ****  ****    0 ROOT
