@<TRIPOS>MOLECULE
LQ6
   52    55     1     0     0
SMALL
abcg2


@<TRIPOS>ATOM
      1 N1          11.7560     1.3950    19.7030 n          1 LQ6      -0.404800
      2 N3          11.6560     0.0850    16.4700 ns         1 LQ6      -0.506600
      3 C4           9.8750     1.9890    23.4140 ca         1 LQ6       0.243000
      4 C5          11.2590     2.7970    21.6140 c6         1 LQ6       0.168800
      5 C6          12.3150     2.4060    20.5950 c6         1 LQ6       0.089000
      6 C7          11.3230     0.2080    20.4220 c6         1 LQ6       0.106000
      7 C8          10.2500     0.5640    21.4610 c6         1 LQ6       0.087500
      8 C13          8.5240    -0.5850    27.2340 cc         1 LQ6      -0.140000
      9 C15         11.7370     1.5830    18.3730 c          1 LQ6       0.606300
     10 C17         11.0910    -0.7240    15.5100 c          1 LQ6       0.618000
     11 C20          8.5090     1.7180    23.4070 ca         1 LQ6      -0.130000
     12 N           10.7360     1.6250    22.3410 nh         1 LQ6      -0.785400
     13 C            7.7160     2.0600    24.4980 ca         1 LQ6       0.146000
     14 C1           8.2770     2.6810    25.6080 ca         1 LQ6       0.115000
     15 C11          9.4310    -1.5570    25.3200 cd         1 LQ6      -0.263300
     16 C12          9.6980    -0.9620    26.5230 cc         1 LQ6      -0.121000
     17 C14          7.3800    -0.9010    26.5600 cd         1 LQ6      -0.234000
     18 C16         10.9600     0.6070    17.5250 cc         1 LQ6       0.049400
     19 C18          9.6440     0.3560    17.6880 cd         1 LQ6      -0.347200
     20 C19          8.9500    -0.4880    16.7410 c          1 LQ6       0.586200
     21 C2           9.6390     2.9680    25.6110 ca         1 LQ6      -0.080000
     22 C3          10.4290     2.6250    24.5300 ca         1 LQ6      -0.113000
     23 C9           9.9210    -0.7170    22.2360 c          1 LQ6       0.589100
     24 N2          10.6950    -0.9470    23.3070 ns         1 LQ6      -0.483900
     25 N4           9.7530    -0.9760    15.7100 ns         1 LQ6      -0.469500
     26 O2           7.7630    -0.7830    16.7910 o          1 LQ6      -0.513000
     27 O3          12.2870     2.5190    17.7960 o          1 LQ6      -0.577100
     28 S            7.7240    -1.6510    25.0520 ss         1 LQ6       0.240000
     29 CL           6.0140     1.7130    24.4240 cl         1 LQ6      -0.170000
     30 CL1          7.3210     3.0980    26.9990 cl         1 LQ6      -0.174000
     31 H15         12.6300     0.3250    16.3430 hn         1 LQ6       0.473000
     32 H3          11.6970     3.4850    22.3330 h1         1 LQ6       0.056700
     33 H4          10.4390     3.3170    21.1000 h1         1 LQ6       0.056700
     34 H6          13.1950     1.9900    21.0910 h1         1 LQ6       0.075700
     35 H5          12.6110     3.2720    20.0110 h1         1 LQ6       0.075700
     36 H7          10.9370    -0.5400    19.7400 h1         1 LQ6       0.074700
     37 H8          12.1940    -0.2070    20.9340 h1         1 LQ6       0.074700
     38 H            9.3390     0.8510    20.9230 h1         1 LQ6       0.071700
     39 H11         10.0590    -2.8740    23.7400 h1         1 LQ6       0.070200
     40 H10         11.3580    -2.2600    24.7630 h1         1 LQ6       0.070200
     41 H18          8.0340     1.2430    22.5630 ha         1 LQ6       0.144000
     42 H12         10.7040    -0.7940    26.8810 ha         1 LQ6       0.127000
     43 H14          6.3580    -0.7240    26.8560 h4         1 LQ6       0.154000
     44 H17          9.0830     0.7770    18.5060 ha         1 LQ6       0.225000
     45 H1          10.0770     3.4430    26.4780 ha         1 LQ6       0.135000
     46 H2          11.4910     2.8270    24.5580 ha         1 LQ6       0.126000
     47 H9          11.3270    -0.2080    23.5810 hn         1 LQ6       0.329500
     48 H16          9.3070    -1.5700    15.0230 hn         1 LQ6       0.347500
     49 O            9.0400    -1.4770    21.8420 o          1 LQ6      -0.591100
     50 O1          11.7220    -1.1770    14.5700 o          1 LQ6      -0.544000
     51 C10         10.4170    -2.0000    24.2790 c3         1 LQ6       0.177300
     52 H13          8.5310    -0.0950    28.1970 ha         1 LQ6       0.135000
@<TRIPOS>BOND
     1     1     5 1   
     2     1     6 1   
     3     1     9 1   
     4     2    10 1   
     5     2    18 1   
     6     2    31 1   
     7     3    11 ar  
     8     3    12 1   
     9     3    22 ar  
    10     4     5 1   
    11     4    12 1   
    12     4    32 1   
    13     4    33 1   
    14     5    34 1   
    15     5    35 1   
    16     6     7 1   
    17     6    36 1   
    18     6    37 1   
    19     7    12 1   
    20     7    23 1   
    21     7    38 1   
    22     8    16 1   
    23     8    17 2   
    24     8    52 1   
    25     9    18 1   
    26     9    27 2   
    27    10    25 1   
    28    10    50 2   
    29    11    13 ar  
    30    11    41 1   
    31    13    14 ar  
    32    13    29 1   
    33    14    21 ar  
    34    14    30 1   
    35    15    16 2   
    36    15    28 1   
    37    15    51 1   
    38    16    42 1   
    39    17    28 1   
    40    17    43 1   
    41    18    19 2   
    42    19    20 1   
    43    19    44 1   
    44    20    25 1   
    45    20    26 2   
    46    21    22 ar  
    47    21    45 1   
    48    22    46 1   
    49    23    24 1   
    50    23    49 2   
    51    24    47 1   
    52    24    51 1   
    53    25    48 1   
    54    39    51 1   
    55    40    51 1   
@<TRIPOS>SUBSTRUCTURE
     1 LQ6         1 TEMP              0 ****  ****    0 ROOT
