@<TRIPOS>MOLECULE
LQ6
   52    55     1     0     0
SMALL
No Charge or Current Charge


@<TRIPOS>ATOM
      1 N1          10.9050     1.8070    19.7360 n          1 LQ6      -0.404800
      2 N3          12.8250    -0.0240    17.1000 ns         1 LQ6      -0.506600
      3 C4           9.2120     2.3750    23.3790 ca         1 LQ6       0.243000
      4 C5           9.5490     3.4700    21.1320 c6         1 LQ6       0.168800
      5 C6          10.8860     3.1400    20.4120 c6         1 LQ6       0.089000
      6 C7          10.3870     0.7170    20.6250 c6         1 LQ6       0.106000
      7 C8           8.9890     1.0290    21.2430 c6         1 LQ6       0.087500
      8 C13          9.9210    -1.0010    26.8600 cc         1 LQ6      -0.140000
      9 C15         11.9320     1.5370    18.8030 c          1 LQ6       0.606300
     10 C17         12.8350    -1.0310    16.1820 c          1 LQ6       0.618000
     11 C20          8.0730     2.3550    24.1970 ca         1 LQ6      -0.130000
     12 N            9.0660     2.3450    21.9770 nh         1 LQ6      -0.785400
     13 C            8.1990     2.3770    25.5960 ca         1 LQ6       0.146000
     14 C1           9.4790     2.4210    26.1870 ca         1 LQ6       0.115000
     15 C11          9.0200    -1.7280    24.8380 cd         1 LQ6      -0.263300
     16 C12         10.1650    -1.4740    25.5490 cc         1 LQ6      -0.121000
     17 C14          8.5900    -0.8840    27.1650 cd         1 LQ6      -0.234000
     18 C16         11.7280     0.3760    17.8560 cc         1 LQ6       0.049400
     19 C18         10.5370    -0.2800    17.6080 cd         1 LQ6      -0.347200
     20 C19         10.4550    -1.3750    16.6330 c          1 LQ6       0.586200
     21 C2          10.6220     2.4340    25.3700 ca         1 LQ6      -0.080000
     22 C3          10.4870     2.4110    23.9700 ca         1 LQ6      -0.113000
     23 C9           8.3900    -0.1640    22.0740 c          1 LQ6       0.589100
     24 N2           9.2620    -1.1520    22.4940 ns         1 LQ6      -0.483900
     25 N4          11.6380    -1.6500    16.0160 ns         1 LQ6      -0.469500
     26 O2           9.4320    -1.9870    16.3820 o          1 LQ6      -0.513000
     27 O3          12.9380     2.2380    18.7590 o          1 LQ6      -0.577100
     28 S            7.5710    -1.3630    25.7950 ss         1 LQ6       0.240000
     29 Cl           6.7400     2.3530    26.5860 cl         1 LQ6      -0.170000
     30 Cl1          9.6760     2.4730    27.9400 cl         1 LQ6      -0.174000
     31 H15         13.7150     0.4530    17.2170 hn         1 LQ6       0.473000
     32 H3           9.6790     4.3800    21.7380 h1         1 LQ6       0.056700
     33 H4           8.7890     3.7060    20.3740 h1         1 LQ6       0.056700
     34 H6          11.7030     3.1730    21.1460 h1         1 LQ6       0.075700
     35 H5          11.0880     3.9300    19.6740 h1         1 LQ6       0.075700
     36 H7          10.3480    -0.2450    20.1010 h1         1 LQ6       0.074700
     37 H8          11.1100     0.5900    21.4440 h1         1 LQ6       0.074700
     38 H            8.2860     1.1400    20.4050 h1         1 LQ6       0.071700
     39 H11          7.8780    -2.5610    23.2200 h1         1 LQ6       0.070200
     40 H10          9.5800    -3.0690    23.2690 h1         1 LQ6       0.070200
     41 H18          7.0870     2.3230    23.7440 ha         1 LQ6       0.144000
     42 H12         11.1700    -1.6140    25.1600 ha         1 LQ6       0.127000
     43 H14          8.1380    -0.5430    28.0880 h4         1 LQ6       0.154000
     44 H17          9.5930    -0.0120    18.0660 ha         1 LQ6       0.225000
     45 H1          11.6110     2.4630    25.8220 ha         1 LQ6       0.135000
     46 H2          11.3750     2.4160    23.3460 ha         1 LQ6       0.126000
     47 H9          10.2390    -1.0470    22.2580 hn         1 LQ6       0.329500
     48 H16         11.6200    -2.3970    15.3410 hn         1 LQ6       0.347500
     49 O            7.2010    -0.2050    22.3680 o          1 LQ6      -0.591100
     50 O1          13.8330    -1.3440    15.5640 o          1 LQ6      -0.544000
     51 C10          8.9030    -2.2180    23.4220 c3         1 LQ6       0.177300
     52 H13         10.7260    -0.7530    27.5470 ha         1 LQ6       0.135000
@<TRIPOS>BOND
     1     1     5 1   
     2     1     6 1   
     3     1     9 1   
     4     2    10 1   
     5     2    18 1   
     6     2    31 1   
     7     3    11 ar  
     8     3    12 1   
     9     3    22 ar  
    10     4     5 1   
    11     4    12 1   
    12     4    32 1   
    13     4    33 1   
    14     5    34 1   
    15     5    35 1   
    16     6     7 1   
    17     6    36 1   
    18     6    37 1   
    19     7    12 1   
    20     7    23 1   
    21     7    38 1   
    22     8    16 1   
    23     8    17 2   
    24     8    52 1   
    25     9    18 1   
    26     9    27 2   
    27    10    25 1   
    28    10    50 2   
    29    11    13 ar  
    30    11    41 1   
    31    13    14 ar  
    32    13    29 1   
    33    14    21 ar  
    34    14    30 1   
    35    15    16 2   
    36    15    28 1   
    37    15    51 1   
    38    16    42 1   
    39    17    28 1   
    40    17    43 1   
    41    18    19 2   
    42    19    20 1   
    43    19    44 1   
    44    20    25 1   
    45    20    26 2   
    46    21    22 ar  
    47    21    45 1   
    48    22    46 1   
    49    23    24 1   
    50    23    49 2   
    51    24    47 1   
    52    24    51 1   
    53    25    48 1   
    54    39    51 1   
    55    40    51 1   
@<TRIPOS>SUBSTRUCTURE
     1 LQ6         1 TEMP              0 ****  ****    0 ROOT
