@<TRIPOS>MOLECULE
LQ7
   54    56     1     0     0
SMALL
abcg2


@<TRIPOS>ATOM
      1 C02          1.4630     0.8000     1.8140 c          1 LQ7       0.624700
      2 C04          2.0650    -1.5260     1.8270 c3         1 LQ7       0.171300
      3 C05          0.9570    -2.3390     1.2340 cc         1 LQ7      -0.255300
      4 C06          1.0500    -3.5910     0.7020 cd         1 LQ7      -0.134000
      5 C07         -0.1960    -4.0900     0.2320 cd         1 LQ7      -0.140000
      6 C08         -1.2080    -3.1980     0.4060 cc         1 LQ7      -0.257000
      7 C10          2.9140    -0.0570     0.0070 c3         1 LQ7       0.111000
      8 C11          2.0630    -0.2970    -1.2340 c3         1 LQ7      -0.111400
      9 C12          2.8690    -0.0930    -2.5070 c3         1 LQ7       0.152800
     10 C14          1.6050     2.1730     1.2290 ca         1 LQ7      -0.174600
     11 C15          0.5780     2.6680     0.4200 ca         1 LQ7       0.173100
     12 C17         -1.3910     2.1390    -0.8220 c3         1 LQ7       0.213900
     13 C18         -2.2130     0.9080    -1.0590 ca         1 LQ7      -0.097300
     14 C19         -3.2920     0.6190    -0.2320 ca         1 LQ7      -0.080000
     15 C20         -4.0470    -0.5390    -0.4000 ca         1 LQ7      -0.083300
     16 C21         -5.2250    -0.8230     0.4860 c3         1 LQ7      -0.047800
     17 C22         -3.6950    -1.4120    -1.4260 ca         1 LQ7      -0.105000
     18 C23         -2.6160    -1.1370    -2.2550 ca         1 LQ7      -0.108000
     19 C24         -1.8740     0.0190    -2.0710 ca         1 LQ7      -0.087000
     20 C25          0.6470     3.9700    -0.0660 ca         1 LQ7      -0.205000
     21 C26          1.7310     4.7720     0.2720 ca         1 LQ7      -0.061000
     22 C27          2.7470     4.2910     1.0830 ca         1 LQ7      -0.154000
     23 C28          2.6770     2.9870     1.5580 ca         1 LQ7      -0.048000
     24 N03          2.1920    -0.1930     1.2640 n          1 LQ7      -0.399800
     25 N13          2.0290    -0.2770    -3.6810 n8         1 LQ7      -0.994200
     26 O01          0.7250     0.6240     2.7730 o          1 LQ7      -0.583100
     27 O16         -0.4170     1.8030     0.1580 os         1 LQ7      -0.335100
     28 S09         -0.6610    -1.7530     1.1480 ss         1 LQ7       0.280000
     29 H042         1.9400    -1.4360     2.9070 h1         1 LQ7       0.066200
     30 H041         3.0030    -2.0560     1.6610 h1         1 LQ7       0.066200
     31 H061         1.9830    -4.1360     0.6410 ha         1 LQ7       0.126000
     32 H071        -0.3260    -5.0620    -0.2240 ha         1 LQ7       0.128000
     33 H081        -2.2440    -3.3080     0.1280 h4         1 LQ7       0.146000
     34 H101         3.7460    -0.7640     0.0320 h1         1 LQ7       0.048200
     35 H102         3.3620     0.9360    -0.0410 h1         1 LQ7       0.048200
     36 H111         1.6460    -1.3070    -1.2220 hc         1 LQ7       0.063700
     37 H112         1.2110     0.3870    -1.2230 hc         1 LQ7       0.063700
     38 H122         3.3570     0.8920    -2.4690 h1         1 LQ7       0.025200
     39 H121         3.6750    -0.8300    -2.5450 h1         1 LQ7       0.025200
     40 H172        -0.9030     2.4610    -1.7480 h1         1 LQ7       0.040200
     41 H171        -2.0140     2.9660    -0.4670 h1         1 LQ7       0.040200
     42 H191        -3.5530     1.3130     0.5600 ha         1 LQ7       0.117000
     43 H212        -6.1200    -0.3130     0.1230 hc         1 LQ7       0.043700
     44 H211        -5.4510    -1.8880     0.5190 hc         1 LQ7       0.043700
     45 H213        -5.0520    -0.4830     1.5060 hc         1 LQ7       0.043700
     46 H221        -4.2670    -2.3210    -1.5740 ha         1 LQ7       0.111000
     47 H231        -2.3510    -1.8320    -3.0420 ha         1 LQ7       0.119000
     48 H241        -1.0250     0.2210    -2.7150 ha         1 LQ7       0.115000
     49 H251        -0.1350     4.3740    -0.6950 ha         1 LQ7       0.119000
     50 H261         1.7740     5.7850    -0.1070 ha         1 LQ7       0.113000
     51 H271         3.5860     4.9210     1.3440 ha         1 LQ7       0.119000
     52 H281         3.4690     2.5990     2.1870 ha         1 LQ7       0.121000
     53 H131         1.3610     0.4820    -3.7360 hn         1 LQ7       0.390000
     54 H132         2.5940    -0.1990    -4.5170 hn         1 LQ7       0.390000
@<TRIPOS>BOND
     1     1    10 1   
     2     1    24 1   
     3     1    26 2   
     4     2     3 1   
     5     2    24 1   
     6     2    29 1   
     7     2    30 1   
     8     3     4 2   
     9     3    28 1   
    10     4     5 1   
    11     4    31 1   
    12     5     6 2   
    13     5    32 1   
    14     6    28 1   
    15     6    33 1   
    16     7     8 1   
    17     7    24 1   
    18     7    34 1   
    19     7    35 1   
    20     8     9 1   
    21     8    36 1   
    22     8    37 1   
    23     9    25 1   
    24     9    38 1   
    25     9    39 1   
    26    10    11 ar  
    27    10    23 ar  
    28    11    20 ar  
    29    11    27 1   
    30    12    13 1   
    31    12    27 1   
    32    12    40 1   
    33    12    41 1   
    34    13    14 ar  
    35    13    19 ar  
    36    14    15 ar  
    37    14    42 1   
    38    15    16 1   
    39    15    17 ar  
    40    16    43 1   
    41    16    44 1   
    42    16    45 1   
    43    17    18 ar  
    44    17    46 1   
    45    18    19 ar  
    46    18    47 1   
    47    19    48 1   
    48    20    21 ar  
    49    20    49 1   
    50    21    22 ar  
    51    21    50 1   
    52    22    23 ar  
    53    22    51 1   
    54    23    52 1   
    55    25    53 1   
    56    25    54 1   
@<TRIPOS>SUBSTRUCTURE
     1 LQ7         1 TEMP              0 ****  ****    0 ROOT
