@<TRIPOS>MOLECULE
LQ7
   54    56     1     0     0
SMALL
No Charge or Current Charge


@<TRIPOS>ATOM
      1 C02          1.9660     0.9370     1.9750 c          1 LQ7       0.624700
      2 C04          2.0050    -1.5110     1.4430 c3         1 LQ7       0.171300
      3 C05          0.7160    -2.2140     1.1110 cc         1 LQ7      -0.255300
      4 C06          0.5550    -3.4280     0.4910 cd         1 LQ7      -0.134000
      5 C07         -0.8030    -3.8220     0.3600 cd         1 LQ7      -0.140000
      6 C08         -1.6870    -2.9130     0.8830 cc         1 LQ7      -0.257000
      7 C10          2.5060     0.2070    -0.3730 c3         1 LQ7       0.111000
      8 C11          2.2630    -0.8690    -1.4580 c3         1 LQ7      -0.111400
      9 C12          2.6810    -0.3850    -2.8590 c3         1 LQ7       0.152800
     10 C14          1.8260     2.3710     1.5360 ca         1 LQ7      -0.174600
     11 C15          0.7770     2.7940     0.6900 ca         1 LQ7       0.173100
     12 C17         -1.2080     2.1970    -0.6500 c3         1 LQ7       0.213900
     13 C18         -1.9840     0.9290    -0.9750 ca         1 LQ7      -0.097300
     14 C19         -3.1600     0.6120    -0.2660 ca         1 LQ7      -0.080000
     15 C20         -3.8830    -0.5580    -0.5680 ca         1 LQ7      -0.083300
     16 C21         -5.1480    -0.8940     0.2060 c3         1 LQ7      -0.047800
     17 C22         -3.4250    -1.4120    -1.5880 ca         1 LQ7      -0.105000
     18 C23         -2.2500    -1.1040    -2.2940 ca         1 LQ7      -0.108000
     19 C24         -1.5320     0.0640    -1.9890 ca         1 LQ7      -0.087000
     20 C25          0.6820     4.1560     0.3230 ca         1 LQ7      -0.205000
     21 C26          1.6120     5.0890     0.8110 ca         1 LQ7      -0.061000
     22 C27          2.6320     4.6730     1.6770 ca         1 LQ7      -0.154000
     23 C28          2.7340     3.3220     2.0460 ca         1 LQ7      -0.048000
     24 N03          1.9920    -0.0920     0.9970 n          1 LQ7      -0.399800
     25 N13          2.4810    -1.4350    -3.8720 n8         1 LQ7      -0.994200
     26 O01          2.0080     0.6840     3.1740 o          1 LQ7      -0.583100
     27 O16         -0.1530     1.8650     0.2650 os         1 LQ7      -0.335100
     28 S09         -0.8440    -1.5100     1.5340 ss         1 LQ7       0.280000
     29 H042         2.1690    -1.5860     2.5250 h1         1 LQ7       0.066200
     30 H041         2.8470    -2.0380     0.9760 h1         1 LQ7       0.066200
     31 H061         1.3850    -4.0350     0.1420 ha         1 LQ7       0.126000
     32 H071        -1.1110    -4.7550    -0.1020 ha         1 LQ7       0.128000
     33 H081        -2.7670    -2.9520     0.9240 h4         1 LQ7       0.146000
     34 H101         3.5860     0.3870    -0.2960 h1         1 LQ7       0.048200
     35 H102         2.0580     1.1360    -0.7390 h1         1 LQ7       0.048200
     36 H111         2.8240    -1.7790    -1.2180 hc         1 LQ7       0.063700
     37 H112         1.1990    -1.1310    -1.4720 hc         1 LQ7       0.063700
     38 H122         2.0870     0.4960    -3.1400 h1         1 LQ7       0.025200
     39 H121         3.7430    -0.1030    -2.8520 h1         1 LQ7       0.025200
     40 H172        -0.7960     2.6130    -1.5790 h1         1 LQ7       0.040200
     41 H171        -1.8830     2.9420    -0.2090 h1         1 LQ7       0.040200
     42 H191        -3.5120     1.2760     0.5210 ha         1 LQ7       0.117000
     43 H212        -6.0100    -0.3520    -0.2010 hc         1 LQ7       0.043700
     44 H211        -5.3750    -1.9660     0.1620 hc         1 LQ7       0.043700
     45 H213        -5.0500    -0.6220     1.2640 hc         1 LQ7       0.043700
     46 H221        -3.9740    -2.3190    -1.8310 ha         1 LQ7       0.111000
     47 H231        -1.8960    -1.7700    -3.0770 ha         1 LQ7       0.119000
     48 H241        -0.6240     0.2990    -2.5400 ha         1 LQ7       0.115000
     49 H251        -0.1090     4.5140    -0.3280 ha         1 LQ7       0.119000
     50 H261         1.5330     6.1370     0.5270 ha         1 LQ7       0.113000
     51 H271         3.3450     5.3970     2.0650 ha         1 LQ7       0.119000
     52 H281         3.5290     3.0100     2.7210 ha         1 LQ7       0.121000
     53 H131         1.4800    -1.6520    -3.9360 hn         1 LQ7       0.390000
     54 H132         2.7060    -1.0530    -4.7990 hn         1 LQ7       0.390000
@<TRIPOS>BOND
     1     1    10 1   
     2     1    24 1   
     3     1    26 2   
     4     2     3 1   
     5     2    24 1   
     6     2    29 1   
     7     2    30 1   
     8     3     4 2   
     9     3    28 1   
    10     4     5 1   
    11     4    31 1   
    12     5     6 2   
    13     5    32 1   
    14     6    28 1   
    15     6    33 1   
    16     7     8 1   
    17     7    24 1   
    18     7    34 1   
    19     7    35 1   
    20     8     9 1   
    21     8    36 1   
    22     8    37 1   
    23     9    25 1   
    24     9    38 1   
    25     9    39 1   
    26    10    11 ar  
    27    10    23 ar  
    28    11    20 ar  
    29    11    27 1   
    30    12    13 1   
    31    12    27 1   
    32    12    40 1   
    33    12    41 1   
    34    13    14 ar  
    35    13    19 ar  
    36    14    15 ar  
    37    14    42 1   
    38    15    16 1   
    39    15    17 ar  
    40    16    43 1   
    41    16    44 1   
    42    16    45 1   
    43    17    18 ar  
    44    17    46 1   
    45    18    19 ar  
    46    18    47 1   
    47    19    48 1   
    48    20    21 ar  
    49    20    49 1   
    50    21    22 ar  
    51    21    50 1   
    52    22    23 ar  
    53    22    51 1   
    54    23    52 1   
    55    25    53 1   
    56    25    54 1   
@<TRIPOS>SUBSTRUCTURE
     1 LQ7         1 TEMP              0 ****  ****    0 ROOT
