@<TRIPOS>MOLECULE
LQ8
   66    70     1     0     0
SMALL
No Charge or Current Charge


@<TRIPOS>ATOM
      1 C2           1.6190    -1.9280    27.6900 c          1 LQ8       0.726000
      2 C4           0.5220    -0.8690    27.3950 c6         1 LQ8      -0.173700
      3 C6           0.4610    -0.4110    25.9090 c6         1 LQ8      -0.053400
      4 C7          -0.5740     0.7320    25.7190 c6         1 LQ8      -0.073400
      5 C8          -1.9760     0.3530    26.2660 c6         1 LQ8      -0.068400
      6 C12         -1.5110    -2.6120    27.4600 c          1 LQ8       0.650100
      7 C15         -2.7010    -3.0090    29.7200 c6         1 LQ8       0.109000
      8 C16         -2.0630    -3.9570    30.7470 c6         1 LQ8      -0.055100
      9 C17         -2.2900    -5.4340    30.3860 ca         1 LQ8      -0.059300
     10 C18         -2.6470    -5.7960    29.0610 ca         1 LQ8      -0.047300
     11 C19         -2.8350    -7.1550    28.7420 ca         1 LQ8      -0.142000
     12 C21         -2.3230    -7.7930    31.0300 ca         1 LQ8      -0.206000
     13 O26         -2.2350    -5.4080    35.4840 oh         1 LQ8      -0.647000
     14 C27         -2.8150    -4.7380    27.9520 c6         1 LQ8       0.127000
     15 C31         -5.0160    -2.3420    26.7770 c          1 LQ8       0.596100
     16 C33         -5.0960    -1.6290    25.4710 ca         1 LQ8      -0.134600
     17 C34         -5.4780    -0.3110    25.1850 ca         1 LQ8      -0.047000
     18 C35         -5.4450     0.1060    23.8370 ca         1 LQ8      -0.106000
     19 C36         -5.0400    -0.7870    22.8140 ca         1 LQ8      -0.106000
     20 C37         -4.6600    -2.1110    23.1230 ca         1 LQ8      -0.047000
     21 C38         -4.6980    -2.5050    24.4680 ca         1 LQ8      -0.134600
     22 C39         -4.3480    -3.8110    25.0970 c          1 LQ8       0.596100
     23 O1           1.5540    -3.0180    27.1450 o          1 LQ8      -0.734000
     24 O3           2.5190    -1.6150    28.4560 o          1 LQ8      -0.734000
     25 C9          -1.9070    -0.0860    27.7520 c6         1 LQ8      -0.072400
     26 C10         -0.8980    -1.2540    27.9350 c6         1 LQ8      -0.101700
     27 O13         -1.4000    -2.9700    26.2930 o          1 LQ8      -0.605100
     28 N14         -2.2850    -3.4030    28.3530 n          1 LQ8      -0.411800
     29 C20         -2.6790    -8.1470    29.7210 ca         1 LQ8      -0.088000
     30 C22         -2.1230    -6.4370    31.3700 ca         1 LQ8       0.141100
     31 O23         -1.7590    -6.0540    32.6480 os         1 LQ8      -0.332100
     32 C25         -1.1630    -6.2390    35.0020 c3         1 LQ8       0.160600
     33 C29         -4.2970    -4.6660    27.4720 c3         1 LQ8       0.100000
     34 N30         -4.5460    -3.6170    26.4630 n          1 LQ8      -0.377400
     35 H1           0.8210     0.0200    27.9690 hc         1 LQ8       0.020700
     36 H2           0.2140    -1.2530    25.2510 hc         1 LQ8       0.053700
     37 H3           1.4530    -0.0610    25.5910 hc         1 LQ8       0.053700
     38 H4          -0.2160     1.6370    26.2290 hc         1 LQ8       0.014700
     39 H5          -0.6490     0.9890    24.6540 hc         1 LQ8       0.014700
     40 H6          -2.6570     1.2090    26.1650 hc         1 LQ8       0.025200
     41 H7          -2.4030    -0.4530    25.6550 hc         1 LQ8       0.025200
     42 H8          -2.4670    -1.9660    29.9610 h1         1 LQ8       0.045200
     43 H9          -3.7930    -3.0980    29.7970 h1         1 LQ8       0.045200
     44 H10         -0.9850    -3.7610    30.8060 hc         1 LQ8       0.077200
     45 H11         -2.4770    -3.7340    31.7400 hc         1 LQ8       0.077200
     46 H12         -3.1000    -7.4480    27.7280 ha         1 LQ8       0.112000
     47 H13         -2.2050    -8.5840    31.7640 ha         1 LQ8       0.103000
     48 H14         -2.4900    -7.5710    33.9050 h1         1 LQ8       0.035200
     49 H15         -0.7710    -7.7120    33.4600 h1         1 LQ8       0.035200
     50 H16         -1.8930    -4.9280    36.2700 ho         1 LQ8       0.437000
     51 H17         -2.2310    -5.1010    27.0930 h1         1 LQ8       0.114700
     52 H18         -5.7840     0.3700    25.9770 ha         1 LQ8       0.133500
     53 H19         -5.7330     1.1240    23.5820 ha         1 LQ8       0.112000
     54 H20         -5.0200    -0.4490    21.7810 ha         1 LQ8       0.112000
     55 H21         -4.3440    -2.8010    22.3440 ha         1 LQ8       0.133500
     56 H23         -1.5980     0.7690    28.3700 hc         1 LQ8       0.025200
     57 H24         -2.9040    -0.3790    28.1060 hc         1 LQ8       0.025200
     58 H25         -0.7740    -1.3460    29.0180 hc         1 LQ8       0.062700
     59 H26         -2.8280    -9.1930    29.4610 ha         1 LQ8       0.099000
     60 H27         -0.8850    -6.9720    35.7700 h1         1 LQ8       0.026700
     61 H28         -0.2730    -5.6320    34.7890 h1         1 LQ8       0.026700
     62 H29         -4.9410    -4.4850    28.3430 h1         1 LQ8       0.059700
     63 H30         -4.5850    -5.6390    27.0540 h1         1 LQ8       0.059700
     64 O32         -5.3060    -1.9090    27.8820 o          1 LQ8      -0.491500
     65 C24         -1.5690    -7.0040    33.7160 c3         1 LQ8       0.167600
     66 O40         -3.9730    -4.8350    24.5440 o          1 LQ8      -0.491500
@<TRIPOS>BOND
     1     1     2 1   
     2     1    23 1   
     3     1    24 1   
     4     2     3 1   
     5     2    26 1   
     6     2    35 1   
     7     3     4 1   
     8     3    36 1   
     9     3    37 1   
    10     4     5 1   
    11     4    38 1   
    12     4    39 1   
    13     5    25 1   
    14     5    40 1   
    15     5    41 1   
    16     6    26 1   
    17     6    27 2   
    18     6    28 1   
    19     7     8 1   
    20     7    28 1   
    21     7    42 1   
    22     7    43 1   
    23     8     9 1   
    24     8    44 1   
    25     8    45 1   
    26     9    10 ar  
    27     9    30 ar  
    28    10    11 ar  
    29    10    14 1   
    30    11    29 ar  
    31    11    46 1   
    32    12    29 ar  
    33    12    30 ar  
    34    12    47 1   
    35    13    32 1   
    36    13    50 1   
    37    14    28 1   
    38    14    33 1   
    39    14    51 1   
    40    15    16 1   
    41    15    34 1   
    42    15    64 2   
    43    16    17 ar  
    44    16    21 ar  
    45    17    18 ar  
    46    17    52 1   
    47    18    19 ar  
    48    18    53 1   
    49    19    20 ar  
    50    19    54 1   
    51    20    21 ar  
    52    20    55 1   
    53    21    22 1   
    54    22    34 1   
    55    22    66 2   
    56    25    26 1   
    57    25    56 1   
    58    25    57 1   
    59    26    58 1   
    60    29    59 1   
    61    30    31 1   
    62    31    65 1   
    63    32    60 1   
    64    32    61 1   
    65    32    65 1   
    66    33    34 1   
    67    33    62 1   
    68    33    63 1   
    69    48    65 1   
    70    49    65 1   
@<TRIPOS>SUBSTRUCTURE
     1 LQ8         1 TEMP              0 ****  ****    0 ROOT
