@<TRIPOS>MOLECULE
LQ8
   66    70     1     0     0
SMALL
bcc


@<TRIPOS>ATOM
      1 C2           1.3050    -2.2340    27.8740 c          1 LQ8       0.936600
      2 C4           0.3370    -1.0650    27.5760 c6         1 LQ8      -0.173700
      3 C6           0.4240    -0.5530    26.1380 c6         1 LQ8      -0.053400
      4 C7          -0.5440     0.5960    25.8780 c6         1 LQ8      -0.073400
      5 C8          -1.9720     0.2200    26.2490 c6         1 LQ8      -0.068400
      6 C12         -1.6300    -2.6680    27.5260 c          1 LQ8       0.717100
      7 C15         -2.8960    -3.0190    29.6620 c6         1 LQ8       0.109000
      8 C16         -2.1780    -3.8890    30.6740 c6         1 LQ8      -0.055100
      9 C17         -2.3010    -5.3390    30.2920 ca         1 LQ8      -0.059300
     10 C18         -2.6740    -5.7180    29.0070 ca         1 LQ8      -0.047300
     11 C19         -2.8100    -7.0710    28.6860 ca         1 LQ8      -0.160000
     12 C21         -2.1870    -7.6820    30.9290 ca         1 LQ8      -0.224000
     13 O26         -2.0020    -5.1570    35.1300 oh         1 LQ8      -0.584800
     14 C27         -2.9080    -4.6970    27.9140 c6         1 LQ8       0.127000
     15 C31         -5.1600    -2.4290    26.7780 c          1 LQ8       0.738600
     16 C33         -5.1000    -1.6460    25.5220 ca         1 LQ8      -0.134600
     17 C34         -5.4980    -0.3530    25.2610 ca         1 LQ8      -0.065000
     18 C35         -5.2980     0.1250    23.9670 ca         1 LQ8      -0.124000
     19 C36         -4.7220    -0.6770    22.9850 ca         1 LQ8      -0.124000
     20 C37         -4.3300    -1.9860    23.2620 ca         1 LQ8      -0.065000
     21 C38         -4.5300    -2.4450    24.5450 ca         1 LQ8      -0.134600
     22 C39         -4.2240    -3.7610    25.1530 c          1 LQ8       0.738600
     23 O1           0.9160    -3.0980    28.6890 o          1 LQ8      -0.839300
     24 O3           2.4160    -2.2050    27.3080 o          1 LQ8      -0.839300
     25 C9          -2.0470    -0.2000    27.7100 c6         1 LQ8      -0.072400
     26 C10         -1.0910    -1.3550    28.0600 c6         1 LQ8      -0.101700
     27 O13         -1.3570    -3.0640    26.3990 o          1 LQ8      -0.605100
     28 N14         -2.4890    -3.3730    28.3170 n          1 LQ8      -0.478800
     29 C20         -2.5770    -8.0380    29.6420 ca         1 LQ8      -0.106000
     30 C22         -2.0350    -6.3380    31.2450 ca         1 LQ8       0.141100
     31 O23         -1.6300    -5.8890    32.4480 os         1 LQ8      -0.308900
     32 C25         -0.9860    -6.0420    34.7250 c3         1 LQ8       0.137400
     33 C29         -4.3800    -4.7020    27.4590 c3         1 LQ8       0.100000
     34 N30         -4.6250    -3.6720    26.4790 n          1 LQ8      -0.511400
     35 H1           0.6770    -0.2320    28.2110 hc         1 LQ8       0.020700
     36 H2           0.2220    -1.3610    25.4330 hc         1 LQ8       0.053700
     37 H3           1.4450    -0.2210    25.9450 hc         1 LQ8       0.053700
     38 H4          -0.2420     1.4700    26.4680 hc         1 LQ8       0.014700
     39 H5          -0.4910     0.9010    24.8290 hc         1 LQ8       0.014700
     40 H6          -2.6460     1.0630    26.0790 hc         1 LQ8       0.025200
     41 H7          -2.3230    -0.5870    25.5990 hc         1 LQ8       0.025200
     42 H8          -2.7290    -1.9650    29.8550 h1         1 LQ8       0.045200
     43 H9          -3.9750    -3.1680    29.7480 h1         1 LQ8       0.045200
     44 H10         -1.1250    -3.5960    30.7310 hc         1 LQ8       0.077200
     45 H11         -2.6020    -3.7150    31.6640 hc         1 LQ8       0.077200
     46 H12         -3.0850    -7.3620    27.6790 ha         1 LQ8       0.130000
     47 H13         -1.9980    -8.4570    31.6590 ha         1 LQ8       0.121000
     48 H14         -2.3660    -7.3520    33.7180 h1         1 LQ8       0.035200
     49 H15         -0.6680    -7.5450    33.2580 h1         1 LQ8       0.035200
     50 H16         -1.6850    -4.6650    35.8920 ho         1 LQ8       0.398000
     51 H17         -2.2990    -4.9880    27.0580 h1         1 LQ8       0.114700
     52 H18         -5.9420     0.2710    26.0250 ha         1 LQ8       0.151500
     53 H19         -5.5930     1.1360    23.7190 ha         1 LQ8       0.130000
     54 H20         -4.5790    -0.2760    21.9910 ha         1 LQ8       0.130000
     55 H21         -3.8850    -2.6090    22.4970 ha         1 LQ8       0.151500
     56 H23         -1.7700     0.6570    28.3330 hc         1 LQ8       0.025200
     57 H24         -3.0750    -0.4530    27.9850 hc         1 LQ8       0.025200
     58 H25         -1.0310    -1.4170    29.1460 hc         1 LQ8       0.062700
     59 H26         -2.6840    -9.0860    29.3920 ha         1 LQ8       0.117000
     60 H27         -0.7490    -6.7840    35.4980 h1         1 LQ8       0.026700
     61 H28         -0.0510    -5.5160    34.4930 h1         1 LQ8       0.026700
     62 H29         -5.0530    -4.5360    28.3000 h1         1 LQ8       0.059700
     63 H30         -4.6370    -5.6710    27.0320 h1         1 LQ8       0.059700
     64 O32         -5.5930    -2.0850    27.8500 o          1 LQ8      -0.567000
     65 C24         -1.4380    -6.8070    33.5080 c3         1 LQ8       0.144400
     66 O40         -3.7450    -4.7360    24.6340 o          1 LQ8      -0.567000
@<TRIPOS>BOND
     1     1     2 1   
     2     1    23 1   
     3     1    24 1   
     4     2     3 1   
     5     2    26 1   
     6     2    35 1   
     7     3     4 1   
     8     3    36 1   
     9     3    37 1   
    10     4     5 1   
    11     4    38 1   
    12     4    39 1   
    13     5    25 1   
    14     5    40 1   
    15     5    41 1   
    16     6    26 1   
    17     6    27 2   
    18     6    28 1   
    19     7     8 1   
    20     7    28 1   
    21     7    42 1   
    22     7    43 1   
    23     8     9 1   
    24     8    44 1   
    25     8    45 1   
    26     9    10 ar  
    27     9    30 ar  
    28    10    11 ar  
    29    10    14 1   
    30    11    29 ar  
    31    11    46 1   
    32    12    29 ar  
    33    12    30 ar  
    34    12    47 1   
    35    13    32 1   
    36    13    50 1   
    37    14    28 1   
    38    14    33 1   
    39    14    51 1   
    40    15    16 1   
    41    15    34 1   
    42    15    64 2   
    43    16    17 ar  
    44    16    21 ar  
    45    17    18 ar  
    46    17    52 1   
    47    18    19 ar  
    48    18    53 1   
    49    19    20 ar  
    50    19    54 1   
    51    20    21 ar  
    52    20    55 1   
    53    21    22 1   
    54    22    34 1   
    55    22    66 2   
    56    25    26 1   
    57    25    56 1   
    58    25    57 1   
    59    26    58 1   
    60    29    59 1   
    61    30    31 1   
    62    31    65 1   
    63    32    60 1   
    64    32    61 1   
    65    32    65 1   
    66    33    34 1   
    67    33    62 1   
    68    33    63 1   
    69    48    65 1   
    70    49    65 1   
@<TRIPOS>SUBSTRUCTURE
     1 LQ8         1 TEMP              0 ****  ****    0 ROOT
