@<TRIPOS>MOLECULE
LQ9
   43    45     1     0     0
SMALL
abcg2


@<TRIPOS>ATOM
      1 N12        127.7440   136.4510   157.4480 nb         1 LQ9      -0.686000
      2 C13        124.6710   131.7560   162.5750 c3         1 LQ9       0.092400
      3 C15        124.7750   132.6800   161.4010 cc         1 LQ9       0.468300
      4 C17        124.8410   130.3050   162.1360 c3         1 LQ9      -0.109100
      5 C20        125.3410   133.9410   159.8620 cd         1 LQ9       0.608500
      6 C22        126.1630   134.8050   159.0120 ca         1 LQ9      -0.068500
      7 C24        127.4930   135.0140   159.3400 ca         1 LQ9      -0.205000
      8 C26        128.2450   135.8560   158.5170 ca         1 LQ9       0.582300
      9 C28        130.1900   135.5670   159.8440 c3         1 LQ9       0.149900
     10 O04        123.7020   132.9050   160.6570 os         1 LQ9      -0.080700
     11 O05        123.7890   134.0940   163.7040 o          1 LQ9      -0.584100
     12 O06        129.5310   136.1430   158.7290 os         1 LQ9      -0.443300
     13 N07        123.4090   131.9240   163.2560 ns         1 LQ9      -0.498900
     14 N08        121.0760   134.2540   164.7370 na         1 LQ9       0.195800
     15 N09        120.0140   134.0360   165.4790 nc         1 LQ9      -0.454800
     16 N10        125.8210   133.2870   160.9590 nd         1 LQ9      -0.702000
     17 N11        124.0760   133.7410   159.6480 nc         1 LQ9      -0.363300
     18 C14        121.8000   133.1260   164.5440 cc         1 LQ9      -0.223600
     19 C16        123.0770   133.1070   163.8010 c          1 LQ9       0.641700
     20 C18        121.1470   132.1140   165.2160 cd         1 LQ9      -0.143000
     21 C19        120.0440   132.7510   165.7840 cd         1 LQ9       0.121300
     22 C23        118.9460   132.1520   166.5850 c3         1 LQ9       0.297700
     23 C25        125.6290   135.4270   157.8870 ca         1 LQ9      -0.175000
     24 C27        126.4700   136.2370   157.1470 ca         1 LQ9       0.373900
     25 H1         125.4930   132.0210   163.2450 h1         1 LQ9       0.101700
     26 H2         124.8120   129.6530   163.0080 hc         1 LQ9       0.059700
     27 H3         124.0530   130.0020   161.4460 hc         1 LQ9       0.059700
     28 H4         125.8020   130.1720   161.6450 hc         1 LQ9       0.059700
     29 H5         120.3940   136.1510   164.3320 h1         1 LQ9       0.075033
     30 H6         122.1020   136.0850   164.8110 h1         1 LQ9       0.075033
     31 H7         121.6100   135.5600   163.1900 h1         1 LQ9       0.075033
     32 H8         127.9150   134.5340   160.2120 ha         1 LQ9       0.148000
     33 H9         131.2130   135.9340   159.8160 h1         1 LQ9       0.046367
     34 H10        129.7320   135.8710   160.7870 h1         1 LQ9       0.046367
     35 H11        130.2050   134.4760   159.7890 h1         1 LQ9       0.046367
     36 H12        122.7530   131.1570   163.2460 hn         1 LQ9       0.337500
     37 H13        121.4420   131.0810   165.3020 ha         1 LQ9       0.158000
     38 H14        124.5980   135.2930   157.5920 ha         1 LQ9       0.142000
     39 H15        126.0970   136.7400   156.2630 h4         1 LQ9       0.027100
     40 C21        121.3200   135.5940   164.2360 c3         1 LQ9       0.065900
     41 F01        118.4370   133.0220   167.4600 f          1 LQ9      -0.106333
     42 F02        117.9350   131.7380   165.8100 f          1 LQ9      -0.106333
     43 F03        119.3710   131.0830   167.2660 f          1 LQ9      -0.106333
@<TRIPOS>BOND
     1     1     8 ar  
     2     1    24 ar  
     3     2     3 1   
     4     2     4 1   
     5     2    13 1   
     6     2    25 1   
     7     3    10 1   
     8     3    16 2   
     9     4    26 1   
    10     4    27 1   
    11     4    28 1   
    12     5     6 1   
    13     5    16 1   
    14     5    17 2   
    15     6     7 ar  
    16     6    23 ar  
    17     7     8 ar  
    18     7    32 1   
    19     8    12 1   
    20     9    12 1   
    21     9    33 1   
    22     9    34 1   
    23     9    35 1   
    24    10    17 1   
    25    11    19 2   
    26    13    19 1   
    27    13    36 1   
    28    14    15 1   
    29    14    18 1   
    30    14    40 1   
    31    15    21 2   
    32    18    19 1   
    33    18    20 2   
    34    20    21 1   
    35    20    37 1   
    36    21    22 1   
    37    22    41 1   
    38    22    42 1   
    39    22    43 1   
    40    23    24 ar  
    41    23    38 1   
    42    24    39 1   
    43    29    40 1   
    44    30    40 1   
    45    31    40 1   
@<TRIPOS>SUBSTRUCTURE
     1 LQ9         1 TEMP              0 ****  ****    0 ROOT
