@<TRIPOS>MOLECULE
LQ9
   43    45     1     0     0
SMALL
No Charge or Current Charge


@<TRIPOS>ATOM
      1 N12        127.8070   136.1100   156.9490 nb         1 LQ9      -0.686000
      2 C13        124.7550   132.0510   162.7840 c3         1 LQ9       0.092400
      3 C15        124.8310   132.7730   161.4490 cc         1 LQ9       0.468300
      4 C17        125.0730   130.5480   162.6490 c3         1 LQ9      -0.109100
      5 C20        125.3920   133.8380   159.7290 cd         1 LQ9       0.608500
      6 C22        126.2190   134.6180   158.7740 ca         1 LQ9      -0.068500
      7 C24        127.5630   134.9540   159.0570 ca         1 LQ9      -0.205000
      8 C26        128.3190   135.6980   158.1240 ca         1 LQ9       0.582300
      9 C28        130.3220   135.6810   159.5670 c3         1 LQ9       0.149900
     10 O04        123.7400   132.7870   160.6340 os         1 LQ9      -0.080700
     11 O05        123.7070   134.4370   163.9480 o          1 LQ9      -0.584100
     12 O06        129.6310   136.0470   158.3590 os         1 LQ9      -0.443300
     13 N07        123.4690   132.2290   163.4840 ns         1 LQ9      -0.498900
     14 N08        120.9740   134.3580   165.2970 na         1 LQ9       0.195800
     15 N09        119.7580   133.9310   165.7940 nc         1 LQ9      -0.454800
     16 N10        125.8750   133.3940   160.9410 nd         1 LQ9      -0.702000
     17 N11        124.1310   133.5100   159.4860 nc         1 LQ9      -0.363300
     18 C14        121.7070   133.3540   164.6660 cc         1 LQ9      -0.223600
     19 C16        123.0360   133.4200   164.0180 c          1 LQ9       0.641700
     20 C18        120.8960   132.2510   164.7820 cd         1 LQ9      -0.143000
     21 C19        119.7280   132.6480   165.4710 cd         1 LQ9       0.121300
     22 C23        118.5430   131.7630   165.8310 c3         1 LQ9       0.297700
     23 C25        125.7060   135.0630   157.5370 ca         1 LQ9      -0.175000
     24 C27        126.5260   135.7960   156.6670 ca         1 LQ9       0.373900
     25 H1         125.5360   132.4920   163.4190 h1         1 LQ9       0.101700
     26 H2         125.0820   130.0640   163.6330 hc         1 LQ9       0.059700
     27 H3         124.3280   130.0450   162.0210 hc         1 LQ9       0.059700
     28 H4         126.0600   130.4040   162.1920 hc         1 LQ9       0.059700
     29 H5         120.5920   136.3140   166.0040 h1         1 LQ9       0.075033
     30 H6         122.3070   135.8090   166.0390 h1         1 LQ9       0.075033
     31 H7         121.5260   136.2190   164.4830 h1         1 LQ9       0.075033
     32 H8         128.0040   134.6360   159.9950 ha         1 LQ9       0.148000
     33 H9         131.3520   136.0600   159.5450 h1         1 LQ9       0.046367
     34 H10        129.8250   136.1070   160.4480 h1         1 LQ9       0.046367
     35 H11        130.3670   134.5900   159.6790 h1         1 LQ9       0.046367
     36 H12        122.8520   131.4340   163.5820 hn         1 LQ9       0.337500
     37 H13        121.0950   131.2480   164.4180 ha         1 LQ9       0.158000
     38 H14        124.6830   134.8480   157.2400 ha         1 LQ9       0.142000
     39 H15        126.1420   136.1450   155.7090 h4         1 LQ9       0.027100
     40 C21        121.3730   135.7620   165.4670 c3         1 LQ9       0.065900
     41 F01        118.3420   131.7100   167.1680 f          1 LQ9      -0.106333
     42 F02        117.3930   132.2090   165.2740 f          1 LQ9      -0.106333
     43 F03        118.7120   130.4880   165.4110 f          1 LQ9      -0.106333
@<TRIPOS>BOND
     1     1     8 ar  
     2     1    24 ar  
     3     2     3 1   
     4     2     4 1   
     5     2    13 1   
     6     2    25 1   
     7     3    10 1   
     8     3    16 2   
     9     4    26 1   
    10     4    27 1   
    11     4    28 1   
    12     5     6 1   
    13     5    16 1   
    14     5    17 2   
    15     6     7 ar  
    16     6    23 ar  
    17     7     8 ar  
    18     7    32 1   
    19     8    12 1   
    20     9    12 1   
    21     9    33 1   
    22     9    34 1   
    23     9    35 1   
    24    10    17 1   
    25    11    19 2   
    26    13    19 1   
    27    13    36 1   
    28    14    15 1   
    29    14    18 1   
    30    14    40 1   
    31    15    21 2   
    32    18    19 1   
    33    18    20 2   
    34    20    21 1   
    35    20    37 1   
    36    21    22 1   
    37    22    41 1   
    38    22    42 1   
    39    22    43 1   
    40    23    24 ar  
    41    23    38 1   
    42    24    39 1   
    43    29    40 1   
    44    30    40 1   
    45    31    40 1   
@<TRIPOS>SUBSTRUCTURE
     1 LQ9         1 TEMP              0 ****  ****    0 ROOT
