@<TRIPOS>MOLECULE
LQA
   55    59     1     0     0
SMALL
No Charge or Current Charge


@<TRIPOS>ATOM
      1 C1          -0.2250    -2.4600     0.2830 cc         1 LQA      -0.217300
      2 C2           2.0870    -0.8550     0.2830 cc         1 LQA       0.256800
      3 C11          3.1940     1.3660     0.8150 ca         1 LQA      -0.062000
      4 C12          3.6170    -2.8140     0.0040 c6         1 LQA       0.209800
      5 C13          4.3490     2.1550     0.7690 ca         1 LQA       0.044100
      6 C14          5.5180     1.6900     0.2400 ca         1 LQA       0.080100
      7 C17         -4.1670     1.0090    -0.1790 ca         1 LQA       0.144100
      8 C18          5.6260     0.3950    -0.2740 ca         1 LQA      -0.102000
      9 C19         -2.7530    -0.9170    -0.7060 ca         1 LQA      -0.142000
     10 C20         -3.9820    -0.2290    -0.8360 ca         1 LQA       0.107100
     11 C24          4.5450    -1.8580    -0.7820 c6         1 LQA      -0.055100
     12 C25          5.8420     3.7830     0.8710 c5         1 LQA       0.375600
     13 C26         -1.8950     0.8580     0.7050 ca         1 LQA      -0.080000
     14 C27         -3.1100     1.5510     0.5820 ca         1 LQA      -0.186000
     15 C29         -5.7820     2.8000     0.4590 c3         1 LQA       0.176300
     16 C30         -4.9470    -1.9990    -2.2790 c3         1 LQA       0.141900
     17 N3           2.2450    -2.2380     0.1520 na         1 LQA      -0.576400
     18 C4           1.0960    -3.0140     0.2730 cc         1 LQA       0.700500
     19 C5          -0.3910    -1.0920     0.2300 cd         1 LQA       0.148800
     20 C6           0.8130    -0.3200     0.2180 cd         1 LQA      -0.321000
     21 C7           3.2490     0.0520     0.2790 ca         1 LQA      -0.086800
     22 C8          -1.7000    -0.3930     0.0820 ca         1 LQA      -0.085800
     23 C9           4.4790    -0.4300    -0.2440 ca         1 LQA      -0.049300
     24 C10         -1.3160    -3.3610     0.4340 cg         1 LQA       0.303700
     25 N15         -2.1860    -4.1270     0.5600 n1         1 LQA      -0.473000
     26 N16          1.3160    -4.2880     0.3570 n2         1 LQA      -0.870100
     27 O21          4.4640     3.4220     1.2440 os         1 LQA      -0.341100
     28 O22          6.5200     2.6030     0.3100 os         1 LQA      -0.339100
     29 O28         -5.0230    -0.7330    -1.6010 os         1 LQA      -0.321100
     30 C31         -7.0120     3.4090    -0.2390 c3         1 LQA      -0.107100
     31 C32         -6.1080     2.3160     1.8910 c3         1 LQA      -0.107100
     32 H1           2.2930     1.7660     1.2720 ha         1 LQA       0.143000
     33 H2           3.5920    -3.7800    -0.5230 h1         1 LQA       0.082700
     34 H3           4.0380    -2.9920     1.0040 h1         1 LQA       0.082700
     35 H4           6.5700     0.0390    -0.6780 ha         1 LQA       0.140000
     36 H5          -2.5960    -1.8390    -1.2530 ha         1 LQA       0.128000
     37 H6           5.5740    -2.2400    -0.7470 hc         1 LQA       0.070700
     38 H7           4.2490    -1.8560    -1.8390 hc         1 LQA       0.070700
     39 H8           5.8110     4.5730     0.1110 h2         1 LQA       0.069700
     40 H9           6.3850     4.1360     1.7560 h2         1 LQA       0.069700
     41 H10         -1.1120     1.2920     1.3220 ha         1 LQA       0.116000
     42 H11         -3.2090     2.5060     1.0870 ha         1 LQA       0.121000
     43 H12         -4.9960     3.5650     0.4880 h1         1 LQA       0.039700
     44 H13         -5.8870    -2.2050    -2.8060 h1         1 LQA       0.042700
     45 H14         -4.1370    -1.9980    -3.0200 h1         1 LQA       0.042700
     46 H15         -4.7720    -2.8140    -1.5650 h1         1 LQA       0.042700
     47 H16          0.7160     0.7540     0.1320 ha         1 LQA       0.205000
     48 H17          0.4130    -4.7740     0.4350 hn         1 LQA       0.409400
     49 H19         -7.3750     4.2830     0.3150 hc         1 LQA       0.047367
     50 H20         -6.7550     3.7330    -1.2550 hc         1 LQA       0.047367
     51 H21         -7.8280     2.6790    -0.3040 hc         1 LQA       0.047367
     52 H22         -5.2180     1.9120     2.3870 hc         1 LQA       0.047367
     53 H23         -6.4810     3.1480     2.4990 hc         1 LQA       0.047367
     54 H24         -6.8760     1.5340     1.8710 hc         1 LQA       0.047367
     55 O23         -5.3810     1.6650    -0.3310 os         1 LQA      -0.331100
@<TRIPOS>BOND
     1     1    18 1   
     2     1    19 2   
     3     1    24 1   
     4     2    17 1   
     5     2    20 2   
     6     2    21 1   
     7     3     5 ar  
     8     3    21 ar  
     9     3    32 1   
    10     4    11 1   
    11     4    17 1   
    12     4    33 1   
    13     4    34 1   
    14     5     6 ar  
    15     5    27 1   
    16     6     8 ar  
    17     6    28 1   
    18     7    10 ar  
    19     7    14 ar  
    20     7    55 1   
    21     8    23 ar  
    22     8    35 1   
    23     9    10 ar  
    24     9    22 ar  
    25     9    36 1   
    26    10    29 1   
    27    11    23 1   
    28    11    37 1   
    29    11    38 1   
    30    12    27 1   
    31    12    28 1   
    32    12    39 1   
    33    12    40 1   
    34    13    14 ar  
    35    13    22 ar  
    36    13    41 1   
    37    14    42 1   
    38    15    30 1   
    39    15    31 1   
    40    15    43 1   
    41    15    55 1   
    42    16    29 1   
    43    16    44 1   
    44    16    45 1   
    45    16    46 1   
    46    17    18 1   
    47    18    26 2   
    48    19    20 1   
    49    19    22 1   
    50    20    47 1   
    51    21    23 ar  
    52    24    25 3   
    53    26    48 1   
    54    30    49 1   
    55    30    50 1   
    56    30    51 1   
    57    31    52 1   
    58    31    53 1   
    59    31    54 1   
@<TRIPOS>SUBSTRUCTURE
     1 LQA         1 TEMP              0 ****  ****    0 ROOT
