@<TRIPOS>MOLECULE
LQA
   55    59     1     0     0
SMALL
bcc


@<TRIPOS>ATOM
      1 C1          -0.2300    -2.3220     0.2690 cc         1 LQA      -0.217300
      2 C2           2.0380    -0.7470     0.2180 cc         1 LQA       0.256800
      3 C11          3.2020     1.4230     0.5950 ca         1 LQA      -0.080000
      4 C12          3.5010    -2.6950     0.3040 c6         1 LQA       0.209800
      5 C13          4.3550     2.1470     0.5010 ca         1 LQA       0.044100
      6 C14          5.5400     1.5860     0.0410 ca         1 LQA       0.080100
      7 C17         -4.1810     0.9640    -0.0760 ca         1 LQA       0.144100
      8 C18          5.6210     0.2680    -0.3320 ca         1 LQA      -0.120000
      9 C19         -2.6590    -0.7690    -0.8070 ca         1 LQA      -0.160000
     10 C20         -3.8950    -0.1580    -0.8880 ca         1 LQA       0.107100
     11 C24          4.4420    -1.9450    -0.6090 c6         1 LQA      -0.055100
     12 C25          5.9560     3.6880     0.6400 c5         1 LQA       0.329200
     13 C26         -1.9580     0.8160     0.8540 ca         1 LQA      -0.098000
     14 C27         -3.2020     1.4330     0.7870 ca         1 LQA      -0.204000
     15 C29         -5.8350     2.5890     0.5690 c3         1 LQA       0.153100
     16 C30         -4.6870    -1.7070    -2.4910 c3         1 LQA       0.118700
     17 N3           2.1640    -2.0980     0.2630 na         1 LQA      -0.576400
     18 C4           1.0700    -2.9670     0.3550 cc         1 LQA       0.700500
     19 C5          -0.3660    -0.9520     0.1650 cd         1 LQA       0.148800
     20 C6           0.7930    -0.1650     0.1570 cd         1 LQA      -0.271000
     21 C7           3.2570     0.0680     0.2020 ca         1 LQA      -0.086800
     22 C8          -1.6780    -0.2940     0.0730 ca         1 LQA      -0.085800
     23 C9           4.4530    -0.4960    -0.2390 ca         1 LQA      -0.049300
     24 C10         -1.3540    -3.1740     0.3930 cg         1 LQA       0.214500
     25 N15         -2.2400    -3.9070     0.5070 n1         1 LQA      -0.383800
     26 N16          1.3020    -4.2150     0.5160 n2         1 LQA      -0.870100
     27 O21          4.5650     3.4470     0.8090 os         1 LQA      -0.317900
     28 O22          6.5110     2.5160     0.0480 os         1 LQA      -0.315900
     29 O28         -4.8870    -0.5470    -1.7080 os         1 LQA      -0.297900
     30 C31         -6.9970     3.2260    -0.1660 c3         1 LQA      -0.107100
     31 C32         -6.2370     2.1130     1.9550 c3         1 LQA      -0.107100
     32 H1           2.2980     1.8730     0.9790 ha         1 LQA       0.161000
     33 H2           3.4030    -3.7310    -0.0020 h1         1 LQA       0.082700
     34 H3           3.8640    -2.6850     1.3350 h1         1 LQA       0.082700
     35 H4           6.5480    -0.1710    -0.6760 ha         1 LQA       0.158000
     36 H5          -2.4290    -1.6040    -1.4540 ha         1 LQA       0.146000
     37 H6           5.4400    -2.3760    -0.5170 hc         1 LQA       0.070700
     38 H7           4.1360    -2.0750    -1.6520 hc         1 LQA       0.070700
     39 H8           6.1070     4.5400    -0.0220 h2         1 LQA       0.069700
     40 H9           6.4260     3.8660     1.6120 h2         1 LQA       0.069700
     41 H10         -1.2230     1.1990     1.5500 ha         1 LQA       0.134000
     42 H11         -3.3860     2.2840     1.4280 ha         1 LQA       0.139000
     43 H12         -5.0270     3.3250     0.6450 h1         1 LQA       0.039700
     44 H13         -5.6120    -1.8740    -3.0370 h1         1 LQA       0.042700
     45 H14         -3.8720    -1.5800    -3.2090 h1         1 LQA       0.042700
     46 H15         -4.4770    -2.5840    -1.8720 h1         1 LQA       0.042700
     47 H16          0.7040     0.9020     0.0320 ha         1 LQA       0.155000
     48 H17          0.4440    -4.7500     0.5540 hn         1 LQA       0.409400
     49 H19         -7.3440     4.0960     0.3890 hc         1 LQA       0.047367
     50 H20         -6.7040     3.5600    -1.1620 hc         1 LQA       0.047367
     51 H21         -7.8340     2.5320    -0.2620 hc         1 LQA       0.047367
     52 H22         -5.4100     1.6560     2.4990 hc         1 LQA       0.047367
     53 H23         -6.5880     2.9600     2.5460 hc         1 LQA       0.047367
     54 H24         -7.0480     1.3880     1.8910 hc         1 LQA       0.047367
     55 O23         -5.4010     1.4900    -0.2410 os         1 LQA      -0.307900
@<TRIPOS>BOND
     1     1    18 1   
     2     1    19 2   
     3     1    24 1   
     4     2    17 1   
     5     2    20 2   
     6     2    21 1   
     7     3     5 ar  
     8     3    21 ar  
     9     3    32 1   
    10     4    11 1   
    11     4    17 1   
    12     4    33 1   
    13     4    34 1   
    14     5     6 ar  
    15     5    27 1   
    16     6     8 ar  
    17     6    28 1   
    18     7    10 ar  
    19     7    14 ar  
    20     7    55 1   
    21     8    23 ar  
    22     8    35 1   
    23     9    10 ar  
    24     9    22 ar  
    25     9    36 1   
    26    10    29 1   
    27    11    23 1   
    28    11    37 1   
    29    11    38 1   
    30    12    27 1   
    31    12    28 1   
    32    12    39 1   
    33    12    40 1   
    34    13    14 ar  
    35    13    22 ar  
    36    13    41 1   
    37    14    42 1   
    38    15    30 1   
    39    15    31 1   
    40    15    43 1   
    41    15    55 1   
    42    16    29 1   
    43    16    44 1   
    44    16    45 1   
    45    16    46 1   
    46    17    18 1   
    47    18    26 2   
    48    19    20 1   
    49    19    22 1   
    50    20    47 1   
    51    21    23 ar  
    52    24    25 3   
    53    26    48 1   
    54    30    49 1   
    55    30    50 1   
    56    30    51 1   
    57    31    52 1   
    58    31    53 1   
    59    31    54 1   
@<TRIPOS>SUBSTRUCTURE
     1 LQA         1 TEMP              0 ****  ****    0 ROOT
