@<TRIPOS>MOLECULE
LQB
   46    49     1     0     0
SMALL
No Charge or Current Charge


@<TRIPOS>ATOM
      1 C2          35.0740    79.0740    -7.7760 ca         1 LQB       0.143800
      2 C3          34.6330    78.6330    -9.0470 ca         1 LQB      -0.224200
      3 C11         37.6350    81.3810    -7.5450 cc         1 LQB       0.277300
      4 C12         33.0860    75.1860    -5.5010 c6         1 LQB       0.257100
      5 C13         33.7750    77.5180    -9.1390 ca         1 LQB       0.005000
      6 C14         31.5830    74.8650    -5.5400 ca         1 LQB      -0.117300
      7 C17         32.5360    77.4000    -4.5550 c6         1 LQB       0.205800
      8 C18         33.3530    76.8570    -7.9760 ca         1 LQB      -0.201000
      9 C19         30.6140    75.8600    -5.2640 ca         1 LQB      -0.070300
     10 C20         31.0460    77.2960    -4.9470 c6         1 LQB      -0.062100
     11 C21         33.9790    81.6840    -6.9100 c3         1 LQB      -0.030800
     12 C22         39.0300    81.9300    -7.6110 c3         1 LQB      -0.121400
     13 C23         31.1630    73.5550    -5.8460 ca         1 LQB      -0.099000
     14 C24         29.2450    75.5350    -5.3060 ca         1 LQB      -0.105000
     15 C25         29.7950    73.2360    -5.8820 ca         1 LQB      -0.105000
     16 C26         28.8360    74.2260    -5.6130 ca         1 LQB      -0.100000
     17 N1          35.9580    80.1500    -7.6290 na         1 LQB       0.183000
     18 N4          35.0600    79.3210   -10.2950 no         1 LQB       0.690200
     19 N5          37.3260    80.1330    -7.8410 nd         1 LQB      -0.500800
     20 C6          35.4260    81.3740    -7.2050 cd         1 LQB      -0.100300
     21 C7          34.6440    78.3910    -6.6230 ca         1 LQB      -0.218000
     22 N8          33.3640    76.6480    -5.5290 nh         1 LQB      -0.791400
     23 C9          36.5310    82.1680    -7.1570 cc         1 LQB      -0.223000
     24 C10         33.7870    77.2880    -6.7120 ca         1 LQB       0.392000
     25 O15         34.9450    80.5510   -10.3460 o          1 LQB      -0.399500
     26 O16         35.3010    78.6140   -11.2810 o          1 LQB      -0.399500
     27 H1          33.5880    74.6800    -6.3390 h1         1 LQB       0.067700
     28 H2          33.5130    74.7480    -4.5860 h1         1 LQB       0.067700
     29 H3          33.4220    77.1690   -10.1090 ha         1 LQB       0.150000
     30 H4          32.6760    76.9840    -3.5450 h1         1 LQB       0.065700
     31 H5          32.8350    78.4570    -4.5050 h1         1 LQB       0.065700
     32 H6          32.6720    76.0160    -8.0620 ha         1 LQB       0.128000
     33 H7          30.8630    77.9240    -5.8290 hc         1 LQB       0.061200
     34 H8          30.4280    77.7100    -4.1390 hc         1 LQB       0.061200
     35 H9          33.6320    81.1430    -6.0220 hc         1 LQB       0.051367
     36 H10         33.8360    82.7550    -6.7240 hc         1 LQB       0.051367
     37 H11         33.3340    81.4040    -7.7510 hc         1 LQB       0.051367
     38 H12         39.7490    81.1590    -7.9100 hc         1 LQB       0.049367
     39 H13         39.0890    82.7490    -8.3370 hc         1 LQB       0.049367
     40 H14         39.3380    82.3200    -6.6340 hc         1 LQB       0.049367
     41 H15         31.8990    72.7810    -6.0550 ha         1 LQB       0.113000
     42 H16         28.4970    76.2980    -5.1030 ha         1 LQB       0.114000
     43 H17         29.4790    72.2230    -6.1190 ha         1 LQB       0.118000
     44 H18         27.7770    73.9800    -5.6430 ha         1 LQB       0.118000
     45 H19         34.9910    78.7160    -5.6470 ha         1 LQB       0.134000
     46 H20         36.5770    83.2160    -6.8770 ha         1 LQB       0.144000
@<TRIPOS>BOND
     1     1     2 ar  
     2     1    17 1   
     3     1    21 ar  
     4     2     5 ar  
     5     2    18 1   
     6     3    12 1   
     7     3    19 2   
     8     3    23 1   
     9     4     6 1   
    10     4    22 1   
    11     4    27 1   
    12     4    28 1   
    13     5     8 ar  
    14     5    29 1   
    15     6     9 ar  
    16     6    13 ar  
    17     7    10 1   
    18     7    22 1   
    19     7    30 1   
    20     7    31 1   
    21     8    24 ar  
    22     8    32 1   
    23     9    10 1   
    24     9    14 ar  
    25    10    33 1   
    26    10    34 1   
    27    11    20 1   
    28    11    35 1   
    29    11    36 1   
    30    11    37 1   
    31    12    38 1   
    32    12    39 1   
    33    12    40 1   
    34    13    15 ar  
    35    13    41 1   
    36    14    16 ar  
    37    14    42 1   
    38    15    16 ar  
    39    15    43 1   
    40    16    44 1   
    41    17    19 1   
    42    17    20 1   
    43    18    25 1   
    44    18    26 1   
    45    20    23 2   
    46    21    24 ar  
    47    21    45 1   
    48    22    24 1   
    49    23    46 1   
@<TRIPOS>SUBSTRUCTURE
     1 LQB         1 TEMP              0 ****  ****    0 ROOT
