@<TRIPOS>MOLECULE
LQB
   46    49     1     0     0
SMALL
abcg2


@<TRIPOS>ATOM
      1 C2          35.1090    78.7790    -7.7720 ca         1 LQB       0.143800
      2 C3          35.2270    78.1330    -9.0150 ca         1 LQB      -0.224200
      3 C11         36.9210    81.7400    -7.5110 cc         1 LQB       0.277300
      4 C12         32.9110    74.8670    -5.7950 c6         1 LQB       0.257100
      5 C13         34.8820    76.7820    -9.1040 ca         1 LQB       0.005000
      6 C14         31.4240    75.1490    -5.6750 ca         1 LQB      -0.117300
      7 C17         33.3410    76.8070    -4.4580 c6         1 LQB       0.205800
      8 C18         34.3690    76.1030    -8.0260 ca         1 LQB      -0.201000
      9 C19         30.9630    76.3350    -5.0920 ca         1 LQB      -0.070300
     10 C20         31.9320    77.3790    -4.5830 c6         1 LQB      -0.062100
     11 C21         33.2990    81.1230    -7.0590 c3         1 LQB      -0.030800
     12 C22         38.2230    82.4650    -7.5810 c3         1 LQB      -0.121400
     13 C23         30.5100    74.2020    -6.1360 ca         1 LQB      -0.099000
     14 C24         29.5860    76.5460    -4.9920 ca         1 LQB      -0.105000
     15 C25         29.1430    74.4210    -6.0290 ca         1 LQB      -0.105000
     16 C26         28.6790    75.6020    -5.4540 ca         1 LQB      -0.100000
     17 N1          35.5380    80.1110    -7.5680 na         1 LQB       0.183000
     18 N4          35.6110    78.8140   -10.2190 no         1 LQB       0.690200
     19 N5          36.8520    80.4320    -7.7340 nd         1 LQB      -0.500800
     20 C6          34.7730    81.1940    -7.2540 cd         1 LQB      -0.100300
     21 C7          34.6160    78.0920    -6.6860 ca         1 LQB      -0.218000
     22 N8          33.6920    76.0940    -5.6870 nh         1 LQB      -0.791400
     23 C9          35.6410    82.2640    -7.2100 cc         1 LQB      -0.223000
     24 C10         34.1930    76.7440    -6.7740 ca         1 LQB       0.392000
     25 O15         35.4330    80.0280   -10.3090 o          1 LQB      -0.399500
     26 O16         36.0800    78.1420   -11.1430 o          1 LQB      -0.399500
     27 H1          33.1130    74.3510    -6.7260 h1         1 LQB       0.067700
     28 H2          33.2260    74.1970    -4.9890 h1         1 LQB       0.067700
     29 H3          34.9890    76.2790   -10.0530 ha         1 LQB       0.150000
     30 H4          33.3780    76.0750    -3.6500 h1         1 LQB       0.065700
     31 H5          34.0740    77.5730    -4.2260 h1         1 LQB       0.065700
     32 H6          34.1030    75.0670    -8.1600 ha         1 LQB       0.128000
     33 H7          31.9450    78.2330    -5.2690 hc         1 LQB       0.061200
     34 H8          31.5990    77.7600    -3.6150 hc         1 LQB       0.061200
     35 H9          33.0350    80.5810    -6.1480 hc         1 LQB       0.051367
     36 H10         32.8930    82.1300    -6.9850 hc         1 LQB       0.051367
     37 H11         32.8150    80.6140    -7.8950 hc         1 LQB       0.051367
     38 H12         39.0270    81.7780    -7.8450 hc         1 LQB       0.049367
     39 H13         38.1870    83.2610    -8.3280 hc         1 LQB       0.049367
     40 H14         38.4660    82.9310    -6.6220 hc         1 LQB       0.049367
     41 H15         30.8780    73.2880    -6.5880 ha         1 LQB       0.113000
     42 H16         29.2270    77.4640    -4.5430 ha         1 LQB       0.114000
     43 H17         28.4450    73.6790    -6.3950 ha         1 LQB       0.118000
     44 H18         27.6150    75.7840    -5.3660 ha         1 LQB       0.118000
     45 H19         34.5750    78.6240    -5.7510 ha         1 LQB       0.134000
     46 H20         35.3840    83.2870    -6.9930 ha         1 LQB       0.144000
@<TRIPOS>BOND
     1     1     2 ar  
     2     1    17 1   
     3     1    21 ar  
     4     2     5 ar  
     5     2    18 1   
     6     3    12 1   
     7     3    19 2   
     8     3    23 1   
     9     4     6 1   
    10     4    22 1   
    11     4    27 1   
    12     4    28 1   
    13     5     8 ar  
    14     5    29 1   
    15     6     9 ar  
    16     6    13 ar  
    17     7    10 1   
    18     7    22 1   
    19     7    30 1   
    20     7    31 1   
    21     8    24 ar  
    22     8    32 1   
    23     9    10 1   
    24     9    14 ar  
    25    10    33 1   
    26    10    34 1   
    27    11    20 1   
    28    11    35 1   
    29    11    36 1   
    30    11    37 1   
    31    12    38 1   
    32    12    39 1   
    33    12    40 1   
    34    13    15 ar  
    35    13    41 1   
    36    14    16 ar  
    37    14    42 1   
    38    15    16 ar  
    39    15    43 1   
    40    16    44 1   
    41    17    19 1   
    42    17    20 1   
    43    18    25 1   
    44    18    26 1   
    45    20    23 2   
    46    21    24 ar  
    47    21    45 1   
    48    22    24 1   
    49    23    46 1   
@<TRIPOS>SUBSTRUCTURE
     1 LQB         1 TEMP              0 ****  ****    0 ROOT
