@<TRIPOS>MOLECULE
LQD
   56    59     1     0     0
SMALL
No Charge or Current Charge


@<TRIPOS>ATOM
      1 C1           2.3530     0.0400    -0.1010 cc         1 LQD      -0.136400
      2 C2           1.0960    -0.7610     0.2220 c5         1 LQD       0.014500
      3 C3           2.6380     0.6630    -1.3170 cd         1 LQD      -0.139100
      4 C11         -1.2610    -0.9860    -0.2200 c5         1 LQD       0.156800
      5 C14         -4.5520    -0.1440     0.7340 ca         1 LQD       0.145100
      6 C16          3.7080    -0.0640     2.0840 ca         1 LQD      -0.064000
      7 C18          5.5720     1.5100     0.6320 ca         1 LQD      -0.128000
      8 C19         -3.6720     2.0720     0.2160 ca         1 LQD      -0.057000
      9 C20         -0.6980    -2.7010    -2.6210 c3         1 LQD       0.147600
     10 C21          1.6940    -2.4910    -2.2020 c3         1 LQD       0.147600
     11 C22         -5.7400     0.1820     0.0380 ca         1 LQD      -0.203000
     12 C23         -5.3670    -2.4200     1.2630 c3         1 LQD       0.149900
     13 C24          4.9100     0.3570     2.6910 ca         1 LQD      -0.143000
     14 C25          5.8390     1.1410     1.9680 ca         1 LQD      -0.096000
     15 C26         -4.8540     2.3870    -0.4730 ca         1 LQD      -0.153000
     16 C27         -5.8880     1.4430    -0.5620 ca         1 LQD      -0.071000
     17 N4           3.8900     1.3080    -1.2260 na         1 LQD      -0.091700
     18 C5           3.4730     0.3200     0.7560 ca         1 LQD      -0.094800
     19 N6          -1.0910     0.2030     0.6450 n3         1 LQD      -0.722600
     20 C7           0.0990    -0.9640    -0.9810 c5         1 LQD       0.171500
     21 C8           4.3680     1.0780     0.0530 ca         1 LQD      -0.048200
     22 C9           0.2250    -0.0210     1.2970 c5         1 LQD       0.163800
     23 C10         -3.5130     0.8110     0.8240 ca         1 LQD      -0.114300
     24 N13          0.3370    -2.3090    -1.6320 n3         1 LQD      -0.706600
     25 H1           1.3870    -1.7330     0.6360 hc         1 LQD       0.069700
     26 H2           2.0560     0.6990    -2.2320 h4         1 LQD       0.217000
     27 H3          -1.3900    -1.9050     0.3690 h1         1 LQD       0.046700
     28 H4          -2.1160    -0.8840    -0.9020 h1         1 LQD       0.046700
     29 H10          2.9890    -0.6690     2.6300 ha         1 LQD       0.113000
     30 H11          6.2840     2.1120     0.0720 ha         1 LQD       0.111000
     31 H12         -2.8720     2.8070     0.2760 ha         1 LQD       0.120000
     32 H13         -0.7320    -1.9860    -3.4540 h1         1 LQD       0.030867
     33 H14         -0.4850    -3.6970    -3.0330 h1         1 LQD       0.030867
     34 H15         -1.6940    -2.7450    -2.1630 h1         1 LQD       0.030867
     35 H16          2.4720    -2.3710    -1.4370 h1         1 LQD       0.030867
     36 H17          1.8070    -3.4990    -2.6230 h1         1 LQD       0.030867
     37 H18          1.8820    -1.7640    -3.0030 h1         1 LQD       0.030867
     38 H19         -6.5560    -0.5290    -0.0490 ha         1 LQD       0.115000
     39 H20         -6.3070    -2.0940     1.7270 h1         1 LQD       0.040033
     40 H21         -5.5660    -2.7020     0.2210 h1         1 LQD       0.040033
     41 H22         -5.0170    -3.3120     1.7960 h1         1 LQD       0.040033
     42 H23          5.1240     0.0760     3.7200 ha         1 LQD       0.109000
     43 H24          6.7640     1.4620     2.4430 ha         1 LQD       0.107000
     44 H25         -4.9670     3.3630    -0.9400 ha         1 LQD       0.114000
     45 H26         -6.8040     1.6890    -1.0960 ha         1 LQD       0.110000
     46 H28          0.1190    -0.1350    -1.7000 h1         1 LQD       0.031700
     47 H29          0.1210    -0.6520     2.1910 h1         1 LQD       0.040200
     48 H30          0.6770     0.9280     1.6170 h1         1 LQD       0.040200
     49 C12         -2.2100     0.5060     1.5620 c3         1 LQD       0.226100
     50 C15          4.6000     2.0860    -2.2520 c3         1 LQD       0.066900
     51 O17         -4.3760    -1.3800     1.3300 os         1 LQD      -0.346100
     52 H5          -2.3600    -0.3250     2.2630 h1         1 LQD       0.044200
     53 H6          -1.9530     1.3820     2.1730 h1         1 LQD       0.044200
     54 H7           4.7590     3.1100    -1.8920 h1         1 LQD       0.047033
     55 H8           5.5700     1.6180    -2.4610 h1         1 LQD       0.047033
     56 H9           4.0060     2.1140    -3.1730 h1         1 LQD       0.047033
@<TRIPOS>BOND
     1     1     2 1   
     2     1     3 2   
     3     1    18 1   
     4     2    20 1   
     5     2    22 1   
     6     2    25 1   
     7     3    17 1   
     8     3    26 1   
     9     4    19 1   
    10     4    20 1   
    11     4    27 1   
    12     4    28 1   
    13     5    11 ar  
    14     5    23 ar  
    15     5    51 1   
    16     6    13 ar  
    17     6    18 ar  
    18     6    29 1   
    19     7    14 ar  
    20     7    21 ar  
    21     7    30 1   
    22     8    15 ar  
    23     8    23 ar  
    24     8    31 1   
    25     9    24 1   
    26     9    32 1   
    27     9    33 1   
    28     9    34 1   
    29    10    24 1   
    30    10    35 1   
    31    10    36 1   
    32    10    37 1   
    33    11    16 ar  
    34    11    38 1   
    35    12    39 1   
    36    12    40 1   
    37    12    41 1   
    38    12    51 1   
    39    13    14 ar  
    40    13    42 1   
    41    14    43 1   
    42    15    16 ar  
    43    15    44 1   
    44    16    45 1   
    45    17    21 1   
    46    17    50 1   
    47    18    21 ar  
    48    19    22 1   
    49    19    49 1   
    50    20    24 1   
    51    20    46 1   
    52    22    47 1   
    53    22    48 1   
    54    23    49 1   
    55    49    52 1   
    56    49    53 1   
    57    50    54 1   
    58    50    55 1   
    59    50    56 1   
@<TRIPOS>SUBSTRUCTURE
     1 LQD         1 TEMP              0 ****  ****    0 ROOT
