@<TRIPOS>MOLECULE
LQD
   56    59     1     0     0
SMALL
bcc


@<TRIPOS>ATOM
      1 C1           2.1490     0.1040     0.0900 cc         1 LQD      -0.136400
      2 C2           1.1360    -0.9040     0.5250 c5         1 LQD       0.014500
      3 C3           1.9840     1.1350    -0.7930 cd         1 LQD      -0.089100
      4 C11         -1.1950    -1.1880    -0.0740 c5         1 LQD       0.156800
      5 C14         -4.4660     0.0720     0.4250 ca         1 LQD       0.145100
      6 C16          4.2630    -0.5240     1.4740 ca         1 LQD      -0.082000
      7 C18          5.3980     1.7120     0.1510 ca         1 LQD      -0.146000
      8 C19         -3.1560     2.0390     0.0220 ca         1 LQD      -0.075000
      9 C20         -0.4920    -3.2880    -1.9370 c3         1 LQD       0.147600
     10 C21          1.8200    -2.9170    -1.5540 c3         1 LQD       0.147600
     11 C22         -5.4490     0.5680    -0.4320 ca         1 LQD      -0.221000
     12 C23         -5.7180    -1.9050     0.8420 c3         1 LQD       0.126700
     13 C24          5.5710    -0.1440     1.7100 ca         1 LQD      -0.161000
     14 C25          6.1320     0.9640     1.0530 ca         1 LQD      -0.114000
     15 C26         -4.1280     2.5410    -0.8330 ca         1 LQD      -0.171000
     16 C27         -5.2760     1.7970    -1.0550 ca         1 LQD      -0.089000
     17 N4           3.1360     1.8700    -0.9030 na         1 LQD      -0.062400
     18 C5           3.4940     0.2130     0.5670 ca         1 LQD      -0.094800
     19 N6          -1.0260    -0.0320     0.7760 n3         1 LQD      -0.722600
     20 C7           0.2160    -1.4090    -0.6220 c5         1 LQD       0.171500
     21 C8           4.0780     1.3260    -0.0810 ca         1 LQD      -0.048200
     22 C9           0.1440    -0.3470     1.5650 c5         1 LQD       0.163800
     23 C10         -3.3030     0.8170     0.6650 ca         1 LQD      -0.114300
     24 N13          0.4890    -2.7840    -0.9960 n3         1 LQD      -0.706600
     25 H1           1.6600    -1.7570     0.9630 hc         1 LQD       0.069700
     26 H2           1.1130     1.4140    -1.3660 h4         1 LQD       0.167000
     27 H3          -1.5220    -2.0780     0.4950 h1         1 LQD       0.046700
     28 H4          -1.9350    -1.0010    -0.8540 h1         1 LQD       0.046700
     29 H10          3.8430    -1.3790     1.9910 ha         1 LQD       0.131000
     30 H11          5.8380     2.5640    -0.3510 ha         1 LQD       0.129000
     31 H12         -2.2520     2.6100     0.1990 ha         1 LQD       0.138000
     32 H13         -0.5500    -2.6940    -2.8640 h1         1 LQD       0.030867
     33 H14         -0.2390    -4.3110    -2.2170 h1         1 LQD       0.030867
     34 H15         -1.4860    -3.3100    -1.4920 h1         1 LQD       0.030867
     35 H16          2.5800    -2.6230    -0.8290 h1         1 LQD       0.030867
     36 H17          2.0070    -3.9580    -1.8190 h1         1 LQD       0.030867
     37 H18          1.9720    -2.3050    -2.4570 h1         1 LQD       0.030867
     38 H19         -6.3540     0.0070    -0.6270 ha         1 LQD       0.133000
     39 H20         -6.6280    -1.3930     1.1650 h1         1 LQD       0.040033
     40 H21         -5.8320    -2.1950    -0.2060 h1         1 LQD       0.040033
     41 H22         -5.5910    -2.8040     1.4410 h1         1 LQD       0.040033
     42 H23          6.1750    -0.7030     2.4120 ha         1 LQD       0.127000
     43 H24          7.1600     1.2370     1.2570 ha         1 LQD       0.125000
     44 H25         -3.9900     3.4990    -1.3160 ha         1 LQD       0.132000
     45 H26         -6.0490     2.1670    -1.7160 ha         1 LQD       0.128000
     46 H28          0.3400    -0.7500    -1.4990 h1         1 LQD       0.031700
     47 H29         -0.0690    -1.1170     2.3270 h1         1 LQD       0.040200
     48 H30          0.5250     0.5340     2.0850 h1         1 LQD       0.040200
     49 C12         -2.1910     0.3250     1.5560 c3         1 LQD       0.226100
     50 C15          3.3300     3.0270    -1.7410 c3         1 LQD       0.037600
     51 O17         -4.5650    -1.1180     1.0520 os         1 LQD      -0.322900
     52 H5          -2.5270    -0.5060     2.1920 h1         1 LQD       0.044200
     53 H6          -1.9040     1.1360     2.2310 h1         1 LQD       0.044200
     54 H7           3.5330     3.9170    -1.1450 h1         1 LQD       0.047033
     55 H8           4.1580     2.8740    -2.4330 h1         1 LQD       0.047033
     56 H9           2.4280     3.2020    -2.3220 h1         1 LQD       0.047033
@<TRIPOS>BOND
     1     1     2 1   
     2     1     3 2   
     3     1    18 1   
     4     2    20 1   
     5     2    22 1   
     6     2    25 1   
     7     3    17 1   
     8     3    26 1   
     9     4    19 1   
    10     4    20 1   
    11     4    27 1   
    12     4    28 1   
    13     5    11 ar  
    14     5    23 ar  
    15     5    51 1   
    16     6    13 ar  
    17     6    18 ar  
    18     6    29 1   
    19     7    14 ar  
    20     7    21 ar  
    21     7    30 1   
    22     8    15 ar  
    23     8    23 ar  
    24     8    31 1   
    25     9    24 1   
    26     9    32 1   
    27     9    33 1   
    28     9    34 1   
    29    10    24 1   
    30    10    35 1   
    31    10    36 1   
    32    10    37 1   
    33    11    16 ar  
    34    11    38 1   
    35    12    39 1   
    36    12    40 1   
    37    12    41 1   
    38    12    51 1   
    39    13    14 ar  
    40    13    42 1   
    41    14    43 1   
    42    15    16 ar  
    43    15    44 1   
    44    16    45 1   
    45    17    21 1   
    46    17    50 1   
    47    18    21 ar  
    48    19    22 1   
    49    19    49 1   
    50    20    24 1   
    51    20    46 1   
    52    22    47 1   
    53    22    48 1   
    54    23    49 1   
    55    49    52 1   
    56    49    53 1   
    57    50    54 1   
    58    50    55 1   
    59    50    56 1   
@<TRIPOS>SUBSTRUCTURE
     1 LQD         1 TEMP              0 ****  ****    0 ROOT
