@<TRIPOS>MOLECULE
LQE
   55    58     1     0     0
SMALL
No Charge or Current Charge


@<TRIPOS>ATOM
      1 C1          -3.8760     0.1950     0.1610 ca         1 LQE      -0.101300
      2 C2          -3.7180    -1.1350     0.6160 ca         1 LQE      -0.037300
      3 C3          -2.6780     0.9730    -0.3990 c6         1 LQE      -0.018100
      4 C11         -6.0940    -1.2290     1.1680 ca         1 LQE      -0.073000
      5 C12         -0.1740     1.1110    -0.7930 c6         1 LQE      -0.071400
      6 C13         -6.5450     2.7930    -0.2860 c3         1 LQE       0.149900
      7 C15          1.2030     0.4800    -0.4920 c6         1 LQE      -0.060700
      8 C16          1.1560    -1.0360    -0.8090 c6         1 LQE       0.173800
      9 C18          2.3410     1.2050    -1.2700 c3         1 LQE      -0.030100
     10 C19          3.7350     0.6760    -0.9520 ca         1 LQE      -0.041300
     11 C20          4.3390     0.9680     0.2860 ca         1 LQE      -0.143000
     12 C21          4.4300    -0.1140    -1.8870 ca         1 LQE      -0.148000
     13 C22          5.6190     0.4810     0.5940 ca         1 LQE       0.142100
     14 C23          5.7110    -0.6060    -1.5880 ca         1 LQE      -0.073000
     15 C24          6.3090    -0.3110    -0.3500 ca         1 LQE      -0.199000
     16 C26          7.4560     0.3520     2.2370 c3         1 LQE       0.149900
     17 C4          -5.1540     0.8020     0.1960 ca         1 LQE       0.141100
     18 C5          -2.3590    -1.8430     0.5920 c6         1 LQE      -0.035100
     19 C6          -4.8300    -1.8330     1.1230 ca         1 LQE      -0.148000
     20 C7          -1.2990     0.3750    -0.0210 c6         1 LQE      -0.059700
     21 C8          -6.2590     0.0840     0.7030 ca         1 LQE      -0.201000
     22 O9          -5.2860     2.0950    -0.2790 os         1 LQE      -0.346100
     23 C10         -1.2710    -1.1600    -0.2890 c6         1 LQE       0.190500
     24 N14          0.0940    -1.7410    -0.0370 n3         1 LQE      -0.722600
     25 O25          6.1540     0.8030     1.8250 os         1 LQE      -0.343100
     26 H1          -2.7760     1.0120    -1.4930 hc         1 LQE       0.054200
     27 H2          -2.7130     2.0150    -0.0540 hc         1 LQE       0.054200
     28 H3          -6.9460    -1.7800     1.5600 ha         1 LQE       0.110000
     29 H4          -0.1670     2.1750    -0.5170 hc         1 LQE       0.039700
     30 H5          -0.3700     1.0670    -1.8740 hc         1 LQE       0.039700
     31 H6          -6.9400     2.8950     0.7330 h1         1 LQE       0.039033
     32 H7          -6.4190     3.7990    -0.7040 h1         1 LQE       0.039033
     33 H8          -7.2820     2.2600    -0.9000 h1         1 LQE       0.039033
     34 H9           1.4220     0.6030     0.5780 hc         1 LQE       0.066700
     35 H10          0.9940    -1.1740    -1.8890 h1         1 LQE       0.033200
     36 H11          2.1360    -1.4760    -0.5730 h1         1 LQE       0.033200
     37 H12         -0.1290    -3.4690    -1.2760 h1         1 LQE       0.029367
     38 H13          1.2030    -3.5630    -0.1010 h1         1 LQE       0.029367
     39 H14         -0.4620    -3.7530     0.4520 h1         1 LQE       0.029367
     40 H15          2.1520     1.1320    -2.3480 hc         1 LQE       0.048700
     41 H16          2.3110     2.2770    -1.0410 hc         1 LQE       0.048700
     42 H17          3.8120     1.5770     1.0160 ha         1 LQE       0.126000
     43 H18          3.9770    -0.3520    -2.8470 ha         1 LQE       0.112000
     44 H19          6.2420    -1.2170    -2.3160 ha         1 LQE       0.109000
     45 H20          7.3000    -0.7040    -0.1440 ha         1 LQE       0.116000
     46 H21          7.6840     0.7200     3.2450 h1         1 LQE       0.039700
     47 H22          7.5010    -0.7440     2.2570 h1         1 LQE       0.039700
     48 H23          8.2320     0.7250     1.5560 h1         1 LQE       0.039700
     49 H24         -1.9910    -1.9180     1.6240 hc         1 LQE       0.057200
     50 H25         -2.5140    -2.8730     0.2450 hc         1 LQE       0.057200
     51 H26         -4.7130    -2.8530     1.4830 ha         1 LQE       0.112000
     52 H27         -1.1380     0.5350     1.0550 hc         1 LQE       0.064700
     53 H28         -7.2510     0.5250     0.7450 ha         1 LQE       0.116000
     54 H29         -1.5410    -1.3190    -1.3440 h1         1 LQE       0.025700
     55 C17          0.1760    -3.2070    -0.2530 c3         1 LQE       0.155100
@<TRIPOS>BOND
     1     1     2 ar  
     2     1     3 1   
     3     1    17 ar  
     4     2    18 1   
     5     2    19 ar  
     6     3    20 1   
     7     3    26 1   
     8     3    27 1   
     9     4    19 ar  
    10     4    21 ar  
    11     4    28 1   
    12     5     7 1   
    13     5    20 1   
    14     5    29 1   
    15     5    30 1   
    16     6    22 1   
    17     6    31 1   
    18     6    32 1   
    19     6    33 1   
    20     7     8 1   
    21     7     9 1   
    22     7    34 1   
    23     8    24 1   
    24     8    35 1   
    25     8    36 1   
    26     9    10 1   
    27     9    40 1   
    28     9    41 1   
    29    10    11 ar  
    30    10    12 ar  
    31    11    13 ar  
    32    11    42 1   
    33    12    14 ar  
    34    12    43 1   
    35    13    15 ar  
    36    13    25 1   
    37    14    15 ar  
    38    14    44 1   
    39    15    45 1   
    40    16    25 1   
    41    16    46 1   
    42    16    47 1   
    43    16    48 1   
    44    17    21 ar  
    45    17    22 1   
    46    18    23 1   
    47    18    49 1   
    48    18    50 1   
    49    19    51 1   
    50    20    23 1   
    51    20    52 1   
    52    21    53 1   
    53    23    24 1   
    54    23    54 1   
    55    24    55 1   
    56    37    55 1   
    57    38    55 1   
    58    39    55 1   
@<TRIPOS>SUBSTRUCTURE
     1 LQE         1 TEMP              0 ****  ****    0 ROOT
