@<TRIPOS>MOLECULE
LQE
   55    58     1     0     0
SMALL
bcc


@<TRIPOS>ATOM
      1 C1          -3.8010     0.1880     0.1490 ca         1 LQE      -0.101300
      2 C2          -3.6380    -1.1120     0.6110 ca         1 LQE      -0.037300
      3 C3          -2.6350     0.9730    -0.3850 c6         1 LQE      -0.018100
      4 C11         -5.9900    -1.2430     1.1230 ca         1 LQE      -0.091000
      5 C12         -0.1650     1.1350    -0.7190 c6         1 LQE      -0.071400
      6 C13         -6.4220     2.6660    -0.3200 c3         1 LQE       0.126700
      7 C15          1.1920     0.5060    -0.4440 c6         1 LQE      -0.060700
      8 C16          1.1190    -0.9760    -0.7690 c6         1 LQE       0.173800
      9 C18          2.2970     1.2120    -1.2360 c3         1 LQE      -0.030100
     10 C19          3.6740     0.6790    -0.9500 ca         1 LQE      -0.041300
     11 C20          4.2840     0.9510     0.2670 ca         1 LQE      -0.161000
     12 C21          4.3470    -0.1170    -1.8780 ca         1 LQE      -0.166000
     13 C22          5.5460     0.4410     0.5720 ca         1 LQE       0.142100
     14 C23          5.6000    -0.6230    -1.5760 ca         1 LQE      -0.091000
     15 C24          6.2120    -0.3540    -0.3580 ca         1 LQE      -0.217000
     16 C26          7.3170     0.2830     2.1450 c3         1 LQE       0.126700
     17 C4          -5.0860     0.7610     0.1640 ca         1 LQE       0.141100
     18 C5          -2.2910    -1.7870     0.6080 c6         1 LQE      -0.035100
     19 C6          -4.7390    -1.8230     1.0980 ca         1 LQE      -0.166000
     20 C7          -1.2810     0.3980     0.0080 c6         1 LQE      -0.059700
     21 C8          -6.1760     0.0540     0.6540 ca         1 LQE      -0.219000
     22 O9          -5.1690     2.0160    -0.3270 os         1 LQE      -0.322900
     23 C10         -1.2440    -1.1040    -0.2680 c6         1 LQE       0.190500
     24 N14          0.0830    -1.6480    -0.0060 n3         1 LQE      -0.722600
     25 O25          6.0400     0.7680     1.7830 os         1 LQE      -0.319900
     26 H1          -2.7010     1.0200    -1.4790 hc         1 LQE       0.054200
     27 H2          -2.6910     2.0100    -0.0460 hc         1 LQE       0.054200
     28 H3          -6.8410    -1.7960     1.5000 ha         1 LQE       0.128000
     29 H4          -0.1660     2.1920    -0.4340 hc         1 LQE       0.039700
     30 H5          -0.3570     1.1050    -1.8000 hc         1 LQE       0.039700
     31 H6          -6.8180     2.7830     0.6930 h1         1 LQE       0.039033
     32 H7          -6.2600     3.6530    -0.7460 h1         1 LQE       0.039033
     33 H8          -7.1620     2.1390    -0.9280 h1         1 LQE       0.039033
     34 H9           1.4140     0.6080     0.6260 hc         1 LQE       0.066700
     35 H10          0.9690    -1.0970    -1.8590 h1         1 LQE       0.033200
     36 H11          2.0730    -1.4550    -0.5350 h1         1 LQE       0.033200
     37 H12         -0.1200    -3.3850    -1.2390 h1         1 LQE       0.029367
     38 H13          1.1820    -3.4170    -0.0420 h1         1 LQE       0.029367
     39 H14         -0.4770    -3.6220     0.4790 h1         1 LQE       0.029367
     40 H15          2.0860     1.1260    -2.3060 hc         1 LQE       0.048700
     41 H16          2.2590     2.2800    -1.0000 hc         1 LQE       0.048700
     42 H17          3.7790     1.5720     0.9990 ha         1 LQE       0.144000
     43 H18          3.8890    -0.3390    -2.8340 ha         1 LQE       0.130000
     44 H19          6.1190    -1.2410    -2.2980 ha         1 LQE       0.127000
     45 H20          7.1920    -0.7640    -0.1560 ha         1 LQE       0.134000
     46 H21          7.5150     0.6520     3.1490 h1         1 LQE       0.039700
     47 H22          7.3520    -0.8090     2.1600 h1         1 LQE       0.039700
     48 H23          8.0990     0.6510     1.4750 h1         1 LQE       0.039700
     49 H24         -1.9030    -1.8290     1.6330 hc         1 LQE       0.057200
     50 H25         -2.4370    -2.8230     0.2990 hc         1 LQE       0.057200
     51 H26         -4.6030    -2.8380     1.4540 ha         1 LQE       0.130000
     52 H27         -1.1420     0.5330     1.0890 hc         1 LQE       0.064700
     53 H28         -7.1670     0.4870     0.6720 ha         1 LQE       0.134000
     54 H29         -1.5220    -1.2600    -1.3310 h1         1 LQE       0.025700
     55 C17          0.1600    -3.0800    -0.2180 c3         1 LQE       0.155100
@<TRIPOS>BOND
     1     1     2 ar  
     2     1     3 1   
     3     1    17 ar  
     4     2    18 1   
     5     2    19 ar  
     6     3    20 1   
     7     3    26 1   
     8     3    27 1   
     9     4    19 ar  
    10     4    21 ar  
    11     4    28 1   
    12     5     7 1   
    13     5    20 1   
    14     5    29 1   
    15     5    30 1   
    16     6    22 1   
    17     6    31 1   
    18     6    32 1   
    19     6    33 1   
    20     7     8 1   
    21     7     9 1   
    22     7    34 1   
    23     8    24 1   
    24     8    35 1   
    25     8    36 1   
    26     9    10 1   
    27     9    40 1   
    28     9    41 1   
    29    10    11 ar  
    30    10    12 ar  
    31    11    13 ar  
    32    11    42 1   
    33    12    14 ar  
    34    12    43 1   
    35    13    15 ar  
    36    13    25 1   
    37    14    15 ar  
    38    14    44 1   
    39    15    45 1   
    40    16    25 1   
    41    16    46 1   
    42    16    47 1   
    43    16    48 1   
    44    17    21 ar  
    45    17    22 1   
    46    18    23 1   
    47    18    49 1   
    48    18    50 1   
    49    19    51 1   
    50    20    23 1   
    51    20    52 1   
    52    21    53 1   
    53    23    24 1   
    54    23    54 1   
    55    24    55 1   
    56    37    55 1   
    57    38    55 1   
    58    39    55 1   
@<TRIPOS>SUBSTRUCTURE
     1 LQE         1 TEMP              0 ****  ****    0 ROOT
