@<TRIPOS>MOLECULE
LQG
   27    29     1     0     0
SMALL
No Charge or Current Charge


@<TRIPOS>ATOM
      1 C1           1.3620     1.7200     0.1540 cc         1 LQG      -0.178000
      2 C2           2.7380     1.9370    -0.2550 cc         1 LQG      -0.020000
      3 C3           3.5840     0.8810    -0.5150 cd         1 LQG      -0.133000
      4 C11         -4.1040    -1.6990    -0.8270 cc         1 LQG       0.141900
      5 N            0.0090     3.8870     0.5740 n1         1 LQG      -0.470000
      6 C            0.6050     2.9000     0.3930 cg         1 LQG       0.340000
      7 C6           0.8330     0.4330     0.3190 cd         1 LQG       0.419000
      8 N3           1.7630    -0.5990     0.1280 na         1 LQG      -0.039800
      9 C5           1.4830    -1.9330     0.1050 cd         1 LQG       0.313700
     10 N2           2.6030    -2.5540    -0.2730 nc         1 LQG      -0.341700
     11 N1           3.5810    -1.5880    -0.5430 nc         1 LQG      -0.099000
     12 C4           3.0240    -0.4110    -0.3240 cd         1 LQG      -0.055000
     13 N4          -0.4660     0.1340     0.7010 nu         1 LQG      -0.975200
     14 C7          -1.6990     0.8210     0.2470 c3         1 LQG       0.212500
     15 C8          -2.8450    -0.1560     0.1400 cc         1 LQG       0.072300
     16 O           -2.9990    -0.8970    -1.0130 os         1 LQG      -0.229000
     17 C10         -4.6300    -1.4680     0.4150 cd         1 LQG      -0.191000
     18 C9          -3.8280    -0.4860     1.0320 cd         1 LQG      -0.146000
     19 H1           3.1030     2.9550    -0.3720 ha         1 LQG       0.133000
     20 H2           4.6050     1.0280    -0.8540 ha         1 LQG       0.154000
     21 H3          -4.3940    -2.3640    -1.6300 h4         1 LQG       0.059100
     22 H4           0.5270    -2.3720     0.3570 h5         1 LQG       0.075800
     23 H5          -0.6010    -0.8080     1.0710 hn         1 LQG       0.504000
     24 H6          -1.9800     1.6150     0.9530 h1         1 LQG       0.078700
     25 H7          -1.5470     1.2880    -0.7370 h1         1 LQG       0.078700
     26 H8          -5.5020    -1.9560     0.8380 ha         1 LQG       0.149000
     27 H9          -3.9580    -0.0680     2.0260 ha         1 LQG       0.147000
@<TRIPOS>BOND
     1     1     2 1   
     2     1     6 1   
     3     1     7 2   
     4     2     3 2   
     5     2    19 1   
     6     3    12 1   
     7     3    20 1   
     8     4    16 1   
     9     4    17 2   
    10     4    21 1   
    11     5     6 3   
    12     7     8 1   
    13     7    13 1   
    14     8     9 1   
    15     8    12 1   
    16     9    10 2   
    17     9    22 1   
    18    10    11 1   
    19    11    12 2   
    20    13    14 1   
    21    13    23 1   
    22    14    15 1   
    23    14    24 1   
    24    14    25 1   
    25    15    16 1   
    26    15    18 2   
    27    17    18 1   
    28    17    26 1   
    29    18    27 1   
@<TRIPOS>SUBSTRUCTURE
     1 LQG         1 TEMP              0 ****  ****    0 ROOT
