@<TRIPOS>MOLECULE
LQG
   27    29     1     0     0
SMALL
bcc


@<TRIPOS>ATOM
      1 C1           1.2570     1.6650    -0.0050 cc         1 LQG      -0.178000
      2 C2           2.6070     1.9080    -0.4140 cc         1 LQG      -0.038000
      3 C3           3.5060     0.9080    -0.5580 cd         1 LQG      -0.151000
      4 C11         -4.0640    -1.5370    -0.8660 cc         1 LQG       0.251600
      5 N           -0.1280     3.7650     0.5170 n1         1 LQG      -0.380800
      6 C            0.4580     2.8000     0.2780 cg         1 LQG       0.250800
      7 C6           0.8020     0.3710     0.2120 cd         1 LQG       0.331300
      8 N3           1.7430    -0.6230     0.0570 na         1 LQG      -0.141200
      9 C5           1.6390    -1.9830     0.1770 cd         1 LQG       0.313700
     10 N2           2.7890    -2.5250    -0.0690 nc         1 LQG      -0.341700
     11 N1           3.6830    -1.5590    -0.3690 nc         1 LQG      -0.099000
     12 C4           3.0600    -0.4090    -0.3000 cd         1 LQG      -0.004300
     13 N4          -0.4330    -0.0310     0.5320 nu         1 LQG      -0.781600
     14 C7          -1.6510     0.7590     0.4190 c3         1 LQG       0.212500
     15 C8          -2.8230    -0.1300     0.2390 cc         1 LQG       0.182000
     16 O           -2.9330    -0.8060    -0.9260 os         1 LQG      -0.317800
     17 C10         -4.6880    -1.3430     0.3180 cd         1 LQG      -0.274300
     18 C9          -3.8730    -0.4230     1.0440 cd         1 LQG      -0.229300
     19 H1           2.9030     2.9330    -0.5900 ha         1 LQG       0.151000
     20 H2           4.5270     1.0830    -0.8580 ha         1 LQG       0.172000
     21 H3          -4.2970    -2.1390    -1.7290 h4         1 LQG       0.059100
     22 H4           0.7390    -2.5150     0.4340 h5         1 LQG       0.075800
     23 H5          -0.5280    -0.9030     1.0300 hn         1 LQG       0.448800
     24 H6          -1.8160     1.3750     1.3050 h1         1 LQG       0.078700
     25 H7          -1.5530     1.4250    -0.4390 h1         1 LQG       0.078700
     26 H8          -5.6120    -1.7960     0.6390 ha         1 LQG       0.167000
     27 H9          -4.0460    -0.0310     2.0330 ha         1 LQG       0.165000
@<TRIPOS>BOND
     1     1     2 1   
     2     1     6 1   
     3     1     7 2   
     4     2     3 2   
     5     2    19 1   
     6     3    12 1   
     7     3    20 1   
     8     4    16 1   
     9     4    17 2   
    10     4    21 1   
    11     5     6 3   
    12     7     8 1   
    13     7    13 1   
    14     8     9 1   
    15     8    12 1   
    16     9    10 2   
    17     9    22 1   
    18    10    11 1   
    19    11    12 2   
    20    13    14 1   
    21    13    23 1   
    22    14    15 1   
    23    14    24 1   
    24    14    25 1   
    25    15    16 1   
    26    15    18 2   
    27    17    18 1   
    28    17    26 1   
    29    18    27 1   
@<TRIPOS>SUBSTRUCTURE
     1 LQG         1 TEMP              0 ****  ****    0 ROOT
