@<TRIPOS>MOLECULE
LQH
   33    36     1     0     0
SMALL
abcg2


@<TRIPOS>ATOM
      1 C2          -0.4230    -0.1410     0.2130 cc         1 LQH       0.047000
      2 C3           1.4970     1.2450    -0.3080 cc         1 LQH       0.065000
      3 C11         -2.5310    -0.3080     1.5420 ca         1 LQH      -0.061000
      4 C12          1.7950    -1.0820     0.4350 ca         1 LQH       0.018000
      5 C13          3.7570     0.2490    -0.1060 ca         1 LQH      -0.053000
      6 C14         -4.0660    -0.3240    -0.7780 ca         1 LQH      -0.156000
      7 C16         -3.9130    -0.4040     1.6250 ca         1 LQH      -0.130000
      8 C17          2.6450    -2.1530     0.7490 ca         1 LQH      -0.121000
      9 C18          4.5760    -0.8160     0.2070 ca         1 LQH      -0.132000
     10 C19         -4.6760    -0.4080     0.4660 ca         1 LQH      -0.073000
     11 C20          4.0130    -2.0210     0.6370 ca         1 LQH      -0.085000
     12 N1           0.1350     1.0300    -0.2130 na         1 LQH      -0.102000
     13 C4          -0.5480     2.2980    -0.4470 c5         1 LQH       0.035600
     14 C5          -1.8960    -0.2150     0.3060 ca         1 LQH      -0.105000
     15 C6           0.3650    -1.1900     0.5380 cd         1 LQH      -0.201000
     16 C7           2.3710     0.1260     0.0040 ca         1 LQH      -0.066000
     17 N8           1.8510     2.4240    -0.6480 n2         1 LQH      -0.356200
     18 C9           0.6370     3.1990    -0.8620 c5         1 LQH       0.095800
     19 C10         -2.6900    -0.2320    -0.8310 ca         1 LQH       0.191000
     20 F15         -2.0890    -0.1650    -2.0290 f          1 LQH      -0.169000
     21 H2           4.1790     1.1880    -0.4410 ha         1 LQH       0.136000
     22 H3          -4.6470    -0.3380    -1.6900 ha         1 LQH       0.136000
     23 H4          -4.3900    -0.4730     2.5930 ha         1 LQH       0.123000
     24 H5           2.2150    -3.0890     1.0830 ha         1 LQH       0.114000
     25 H6           5.6500    -0.7200     0.1200 ha         1 LQH       0.116000
     26 H7          -5.7540    -0.4800     0.5240 ha         1 LQH       0.121000
     27 H8           4.6550    -2.8570     0.8850 ha         1 LQH       0.112000
     28 H9          -1.3000     2.2110    -1.2290 h1         1 LQH       0.057200
     29 H10         -1.0390     2.6390     0.4660 h1         1 LQH       0.057200
     30 H11         -0.0850    -2.1190     0.8590 ha         1 LQH       0.131000
     31 H13          0.5590     3.4950    -1.9110 h1         1 LQH       0.063700
     32 H14          0.6610     4.1210    -0.2780 h1         1 LQH       0.063700
     33 H1          -1.9290    -0.2980     2.4410 ha         1 LQH       0.127000
@<TRIPOS>BOND
     1     1    12 1   
     2     1    14 1   
     3     1    15 2   
     4     2    12 1   
     5     2    16 1   
     6     2    17 2   
     7     3     7 ar  
     8     3    14 ar  
     9     3    33 1   
    10     4     8 ar  
    11     4    15 1   
    12     4    16 ar  
    13     5     9 ar  
    14     5    16 ar  
    15     5    21 1   
    16     6    10 ar  
    17     6    19 ar  
    18     6    22 1   
    19     7    10 ar  
    20     7    23 1   
    21     8    11 ar  
    22     8    24 1   
    23     9    11 ar  
    24     9    25 1   
    25    10    26 1   
    26    11    27 1   
    27    12    13 1   
    28    13    18 1   
    29    13    28 1   
    30    13    29 1   
    31    14    19 ar  
    32    15    30 1   
    33    17    18 1   
    34    18    31 1   
    35    18    32 1   
    36    19    20 1   
@<TRIPOS>SUBSTRUCTURE
     1 LQH         1 TEMP              0 ****  ****    0 ROOT
