@<TRIPOS>MOLECULE
LQH
   33    36     1     0     0
SMALL
No Charge or Current Charge


@<TRIPOS>ATOM
      1 C2          -0.4810    -0.0090     0.1810 cc         1 LQH       0.047000
      2 C3           1.5140     1.2540    -0.3270 cc         1 LQH       0.065000
      3 C11         -2.4980    -0.4530     1.5580 ca         1 LQH      -0.061000
      4 C12          1.7960    -1.0410     0.4460 ca         1 LQH       0.018000
      5 C13          3.8000     0.2240    -0.0780 ca         1 LQH      -0.053000
      6 C14         -4.1520    -0.3270    -0.7100 ca         1 LQH      -0.156000
      7 C16         -3.8870    -0.6340     1.6870 ca         1 LQH      -0.130000
      8 C17          2.5830    -2.1520     0.7960 ca         1 LQH      -0.121000
      9 C18          4.5920    -0.8850     0.2710 ca         1 LQH      -0.132000
     10 C19         -4.7160    -0.5690     0.5540 ca         1 LQH      -0.073000
     11 C20          3.9840    -2.0740     0.7080 ca         1 LQH      -0.085000
     12 N1           0.1340     1.1820    -0.2640 na         1 LQH      -0.102000
     13 C4          -0.5010     2.4120    -0.6130 c5         1 LQH       0.035600
     14 C5          -1.9260    -0.1990     0.2950 ca         1 LQH      -0.105000
     15 C6           0.3420    -1.0740     0.5210 cd         1 LQH      -0.201000
     16 C7           2.3940     0.1410     0.0090 ca         1 LQH      -0.066000
     17 N8           1.9260     2.4330    -0.7050 n2         1 LQH      -0.356200
     18 C9           0.7170     3.3120    -0.9310 c5         1 LQH       0.095800
     19 C10         -2.7650    -0.1450    -0.8380 ca         1 LQH       0.191000
     20 F15         -2.2420     0.0560    -2.0690 f          1 LQH      -0.169000
     21 H2           4.2780     1.1420    -0.4130 ha         1 LQH       0.136000
     22 H3          -4.7860    -0.2850    -1.5920 ha         1 LQH       0.136000
     23 H4          -4.3200    -0.8250     2.6660 ha         1 LQH       0.123000
     24 H5           2.1120    -3.0720     1.1350 ha         1 LQH       0.114000
     25 H6           5.6760    -0.8210     0.2030 ha         1 LQH       0.116000
     26 H7          -5.7900    -0.7110     0.6550 ha         1 LQH       0.121000
     27 H8           4.5960    -2.9330     0.9790 ha         1 LQH       0.112000
     28 H9          -1.1520     2.2890    -1.4870 h1         1 LQH       0.057200
     29 H10         -1.0920     2.7980     0.2270 h1         1 LQH       0.057200
     30 H11         -0.1290    -1.9930     0.8550 ha         1 LQH       0.131000
     31 H13          0.6930     3.6680    -1.9700 h1         1 LQH       0.063700
     32 H14          0.7520     4.1880    -0.2690 h1         1 LQH       0.063700
     33 H1          -1.8650    -0.5020     2.4420 ha         1 LQH       0.127000
@<TRIPOS>BOND
     1     1    12 1   
     2     1    14 1   
     3     1    15 2   
     4     2    12 1   
     5     2    16 1   
     6     2    17 2   
     7     3     7 ar  
     8     3    14 ar  
     9     3    33 1   
    10     4     8 ar  
    11     4    15 1   
    12     4    16 ar  
    13     5     9 ar  
    14     5    16 ar  
    15     5    21 1   
    16     6    10 ar  
    17     6    19 ar  
    18     6    22 1   
    19     7    10 ar  
    20     7    23 1   
    21     8    11 ar  
    22     8    24 1   
    23     9    11 ar  
    24     9    25 1   
    25    10    26 1   
    26    11    27 1   
    27    12    13 1   
    28    13    18 1   
    29    13    28 1   
    30    13    29 1   
    31    14    19 ar  
    32    15    30 1   
    33    17    18 1   
    34    18    31 1   
    35    18    32 1   
    36    19    20 1   
@<TRIPOS>SUBSTRUCTURE
     1 LQH         1 TEMP              0 ****  ****    0 ROOT
