@<TRIPOS>MOLECULE
LQI
   35    37     1     0     0
SMALL
bcc


@<TRIPOS>ATOM
      1 N1          66.0740     1.9670    82.7050 n          1 LQI      -0.465800
      2 C4          66.4170     2.7100    83.9080 c6         1 LQI       0.105500
      3 C5          65.2390     2.7080    81.7640 c6         1 LQI       0.105500
      4 C6          65.5300     4.2070    81.8690 c6         1 LQI      -0.087900
      5 C7          66.3090     0.6660    82.4780 c          1 LQI       0.711300
      6 C8          67.3460    -0.0250    83.2840 cc         1 LQI      -0.048100
      7 C10         68.6320    -1.4980    84.3460 ca         1 LQI      -0.125800
      8 C13         71.1410    -1.0760    85.4400 ca         1 LQI      -0.103000
      9 C15         69.2650    -0.2540    84.2850 ca         1 LQI       0.066100
     10 C1          67.3710     5.9310    82.0800 c3         1 LQI      -0.087100
     11 C2          67.0020     4.4580    82.1790 c6         1 LQI      -0.058700
     12 C3          67.3290     3.8870    83.5700 c6         1 LQI      -0.087900
     13 O1          65.7250     0.0190    81.6160 o          1 LQI      -0.590100
     14 C9          67.3820    -1.3200    83.6700 cd         1 LQI      -0.117200
     15 C11         69.2790    -2.5620    84.9770 ca         1 LQI      -0.069000
     16 C12         70.5300    -2.3360    85.5190 ca         1 LQI      -0.152000
     17 C14         70.5190    -0.0060    84.8180 ca         1 LQI      -0.127000
     18 O2          68.4820     0.6360    83.6390 os         1 LQI      -0.165200
     19 H1          65.4810     3.0720    84.3420 h1         1 LQI       0.052950
     20 H2          66.8560     2.0610    84.6600 h1         1 LQI       0.052950
     21 H3          64.1780     2.5050    81.9450 h1         1 LQI       0.052950
     22 H4          65.4680     2.3570    80.7580 h1         1 LQI       0.052950
     23 H5          65.2460     4.6780    80.9250 hc         1 LQI       0.048200
     24 H6          64.9100     4.6730    82.6410 hc         1 LQI       0.048200
     25 H7          72.1220    -0.9350    85.8750 ha         1 LQI       0.134000
     26 H8          68.4210     6.0910    82.3330 hc         1 LQI       0.034367
     27 H9          67.2100     6.3140    81.0710 hc         1 LQI       0.034367
     28 H10         66.7700     6.5310    82.7660 hc         1 LQI       0.034367
     29 H11         67.5940     3.9110    81.4360 hc         1 LQI       0.056700
     30 H12         68.3770     3.5830    83.6100 hc         1 LQI       0.048200
     31 H13         67.1910     4.6570    84.3340 hc         1 LQI       0.048200
     32 H14         66.6110    -2.0550    83.5050 ha         1 LQI       0.176000
     33 H15         68.8130    -3.5370    85.0400 ha         1 LQI       0.140000
     34 H16         71.0530    -3.1430    86.0150 ha         1 LQI       0.134000
     35 H17         70.9870     0.9670    84.7540 ha         1 LQI       0.148000
@<TRIPOS>BOND
     1     1     2 1   
     2     1     3 1   
     3     1     5 1   
     4     2    12 1   
     5     2    19 1   
     6     2    20 1   
     7     3     4 1   
     8     3    21 1   
     9     3    22 1   
    10     4    11 1   
    11     4    23 1   
    12     4    24 1   
    13     5     6 1   
    14     5    13 2   
    15     6    14 2   
    16     6    18 1   
    17     7     9 ar  
    18     7    14 1   
    19     7    15 ar  
    20     8    16 ar  
    21     8    17 ar  
    22     8    25 1   
    23     9    17 ar  
    24     9    18 1   
    25    10    11 1   
    26    10    26 1   
    27    10    27 1   
    28    10    28 1   
    29    11    12 1   
    30    11    29 1   
    31    12    30 1   
    32    12    31 1   
    33    14    32 1   
    34    15    16 ar  
    35    15    33 1   
    36    16    34 1   
    37    17    35 1   
@<TRIPOS>SUBSTRUCTURE
     1 LQI         1 TEMP              0 ****  ****    0 ROOT
