@<TRIPOS>MOLECULE
LQI
   35    37     1     0     0
SMALL
No Charge or Current Charge


@<TRIPOS>ATOM
      1 N1          66.1780     2.0220    82.7360 n          1 LQI      -0.398800
      2 C4          66.6060     2.8890    83.8700 c6         1 LQI       0.105500
      3 C5          65.2970     2.7150    81.7490 c6         1 LQI       0.105500
      4 C6          65.4190     4.2640    81.7720 c6         1 LQI      -0.087900
      5 C7          66.2770     0.6060    82.7220 c          1 LQI       0.644300
      6 C8          67.3910    -0.0520    83.4800 cc         1 LQI      -0.048100
      7 C10         68.7550    -1.6550    84.3410 ca         1 LQI      -0.125800
      8 C13         71.1490    -1.4050    85.7130 ca         1 LQI      -0.085000
      9 C15         69.2720    -0.4090    84.5720 ca         1 LQI       0.066100
     10 C1          67.1020     6.2120    81.8850 c3         1 LQI      -0.087100
     11 C2          66.8910     4.6810    82.0190 c6         1 LQI      -0.058700
     12 C3          67.3860     4.1440    83.3950 c6         1 LQI      -0.087900
     13 O1          65.4800    -0.0550    82.0640 o          1 LQI      -0.590100
     14 C9          67.5440    -1.4220    83.6240 cd         1 LQI      -0.167200
     15 C11         69.3850    -2.8290    84.7690 ca         1 LQI      -0.051000
     16 C12         70.6040    -2.6900    85.4680 ca         1 LQI      -0.134000
     17 C14         70.4800    -0.2450    85.2610 ca         1 LQI      -0.109000
     18 O2          68.4890     0.6040    84.0530 os         1 LQI      -0.165200
     19 H1          65.6900     3.2360    84.3700 h1         1 LQI       0.052950
     20 H2          67.1620     2.3590    84.6480 h1         1 LQI       0.052950
     21 H3          64.2490     2.4260    81.9200 h1         1 LQI       0.052950
     22 H4          65.5710     2.3620    80.7450 h1         1 LQI       0.052950
     23 H5          65.0500     4.6760    80.8230 hc         1 LQI       0.048200
     24 H6          64.7770     4.6790    82.5620 hc         1 LQI       0.048200
     25 H7          72.0890    -1.3110    86.2520 ha         1 LQI       0.116000
     26 H8          68.1550     6.4800    82.0360 hc         1 LQI       0.034367
     27 H9          66.8100     6.5660    80.8890 hc         1 LQI       0.034367
     28 H10         66.5070     6.7640    82.6230 hc         1 LQI       0.034367
     29 H11         67.5050     4.2220    81.2310 hc         1 LQI       0.056700
     30 H12         68.4550     3.9030    83.3210 hc         1 LQI       0.048200
     31 H13         67.3020     4.9200    84.1690 hc         1 LQI       0.048200
     32 H14         66.8610    -2.1780    83.2420 ha         1 LQI       0.226000
     33 H15         68.9540    -3.8080    84.5710 ha         1 LQI       0.122000
     34 H16         71.1280    -3.5760    85.8190 ha         1 LQI       0.116000
     35 H17         70.8890     0.7460    85.4410 ha         1 LQI       0.130000
@<TRIPOS>BOND
     1     1     2 1   
     2     1     3 1   
     3     1     5 1   
     4     2    12 1   
     5     2    19 1   
     6     2    20 1   
     7     3     4 1   
     8     3    21 1   
     9     3    22 1   
    10     4    11 1   
    11     4    23 1   
    12     4    24 1   
    13     5     6 1   
    14     5    13 2   
    15     6    14 2   
    16     6    18 1   
    17     7     9 ar  
    18     7    14 1   
    19     7    15 ar  
    20     8    16 ar  
    21     8    17 ar  
    22     8    25 1   
    23     9    17 ar  
    24     9    18 1   
    25    10    11 1   
    26    10    26 1   
    27    10    27 1   
    28    10    28 1   
    29    11    12 1   
    30    11    29 1   
    31    12    30 1   
    32    12    31 1   
    33    14    32 1   
    34    15    16 ar  
    35    15    33 1   
    36    16    34 1   
    37    17    35 1   
@<TRIPOS>SUBSTRUCTURE
     1 LQI         1 TEMP              0 ****  ****    0 ROOT
