@<TRIPOS>MOLECULE
LQK
   62    66     1     0     0
SMALL
No Charge or Current Charge


@<TRIPOS>ATOM
      1 C2          33.2290     4.2090    25.8020 c          1 LQK       0.612100
      2 C4          33.9540     5.5080    26.3680 cy         1 LQK      -0.167700
      3 C6          34.4670     4.9920    27.7710 cy         1 LQK      -0.071400
      4 C7          35.9000     5.5060    27.3270 cy         1 LQK      -0.074400
      5 C8          35.4610     5.4060    25.8020 cy         1 LQK      -0.142700
      6 C15         35.4500     2.2570    21.6200 ca         1 LQK      -0.091300
      7 C16         36.2700     1.5670    22.5410 ca         1 LQK      -0.049300
      8 C17         36.6480     0.2370    22.2690 ca         1 LQK      -0.136000
      9 C18         36.2230    -0.4020    21.0960 ca         1 LQK      -0.072000
     10 C19         35.4080     0.2800    20.1810 ca         1 LQK      -0.192000
     11 C27         38.3050     2.4810    23.7290 c3         1 LQK       0.095000
     12 C31         39.6950     4.5880    26.4700 ca         1 LQK      -0.134600
     13 C32         40.0740     5.7380    27.1750 ca         1 LQK      -0.046000
     14 C33         40.6200     5.5690    28.4660 ca         1 LQK      -0.101000
     15 C34         40.7760     4.2740    29.0200 ca         1 LQK      -0.101000
     16 C35         40.3870     3.1280    28.2930 ca         1 LQK      -0.046000
     17 C36         39.8460     3.3180    27.0130 ca         1 LQK      -0.134600
     18 C37         39.3430     2.3210    26.0250 c          1 LQK       0.592600
     19 N1          32.7400     4.4570    24.5720 nt         1 LQK      -0.618000
     20 O3          32.9640     3.1090    26.2580 o          1 LQK      -0.579100
     21 C10         35.8300     3.8350    25.5780 c          1 LQK       0.627100
     22 O11         36.0490     2.9350    26.3850 o          1 LQK      -0.592100
     23 N12         36.0340     3.4840    24.2080 n          1 LQK      -0.403800
     24 C13         35.7820     4.3850    23.0460 c6         1 LQK       0.094000
     25 C14         34.9920     3.6860    21.9210 c6         1 LQK      -0.037100
     26 C20         35.0120     1.6100    20.4410 ca         1 LQK       0.145100
     27 O21         34.1940     2.3080    19.5710 os         1 LQK      -0.359100
     28 C22         33.6950     1.7320    18.3470 c3         1 LQK       0.156600
     29 O24         32.2940     2.2780    16.4070 oh         1 LQK      -0.662000
     30 C25         36.7690     2.2310    23.8340 c6         1 LQK       0.135000
     31 N28         38.9000     3.0790    24.9430 n          1 LQK      -0.385400
     32 C29         39.0930     4.4500    25.1140 c          1 LQK       0.592600
     33 O30         38.8170     5.3410    24.3250 o          1 LQK      -0.497000
     34 H1          33.4140     6.4590    26.3140 hc         1 LQK       0.056700
     35 H2          34.0450     5.5200    28.6330 hc         1 LQK       0.069200
     36 H3          34.4260     3.9240    28.0070 hc         1 LQK       0.069200
     37 H4          36.7660     4.9250    27.6650 hc         1 LQK       0.061200
     38 H5          36.0900     6.5400    27.6380 hc         1 LQK       0.061200
     39 H6          35.8830     6.1460    25.1160 hc         1 LQK       0.078700
     40 H7          37.2750    -0.3080    22.9720 ha         1 LQK       0.124000
     41 H8          36.5240    -1.4290    20.8970 ha         1 LQK       0.115000
     42 H9          35.0900    -0.2410    19.2830 ha         1 LQK       0.121000
     43 H10         33.4340     3.6860    17.4470 h1         1 LQK       0.031200
     44 H11         32.0040     3.0870    18.3110 h1         1 LQK       0.031200
     45 H12         38.8080     1.5280    23.5210 h1         1 LQK       0.072700
     46 H13         38.4970     3.1390    22.8720 h1         1 LQK       0.072700
     47 H14         39.9500     6.7290    26.7430 ha         1 LQK       0.136500
     48 H15         40.9240     6.4410    29.0400 ha         1 LQK       0.120000
     49 H16         41.1980     4.1610    30.0160 ha         1 LQK       0.120000
     50 H17         40.5000     2.1300    28.7130 ha         1 LQK       0.136500
     51 H18         32.2130     3.7380    24.0980 hn         1 LQK       0.311500
     52 H19         32.8690     5.3650    24.1510 hn         1 LQK       0.311500
     53 H20         36.7490     4.7230    22.6460 h1         1 LQK       0.049200
     54 H21         35.2160     5.2800    23.3240 h1         1 LQK       0.049200
     55 H22         35.0520     4.3040    21.0150 hc         1 LQK       0.060700
     56 H23         33.9300     3.6530    22.1950 hc         1 LQK       0.060700
     57 H24         33.0860     0.8440    18.5570 h1         1 LQK       0.051200
     58 H25         34.5240     1.4460    17.6870 h1         1 LQK       0.051200
     59 H26         31.7510     2.9930    16.0050 ho         1 LQK       0.450000
     60 H27         36.6280     1.4810    24.6260 h1         1 LQK       0.109700
     61 O38         39.3170     1.1030    26.1330 o          1 LQK      -0.497000
     62 C23         32.8230     2.7940    17.6400 c3         1 LQK       0.158600
@<TRIPOS>BOND
     1     1     2 1   
     2     1    19 1   
     3     1    20 2   
     4     2     3 1   
     5     2     5 1   
     6     2    34 1   
     7     3     4 1   
     8     3    35 1   
     9     3    36 1   
    10     4     5 1   
    11     4    37 1   
    12     4    38 1   
    13     5    21 1   
    14     5    39 1   
    15     6     7 ar  
    16     6    25 1   
    17     6    26 ar  
    18     7     8 ar  
    19     7    30 1   
    20     8     9 ar  
    21     8    40 1   
    22     9    10 ar  
    23     9    41 1   
    24    10    26 ar  
    25    10    42 1   
    26    11    30 1   
    27    11    31 1   
    28    11    45 1   
    29    11    46 1   
    30    12    13 ar  
    31    12    17 ar  
    32    12    32 1   
    33    13    14 ar  
    34    13    47 1   
    35    14    15 ar  
    36    14    48 1   
    37    15    16 ar  
    38    15    49 1   
    39    16    17 ar  
    40    16    50 1   
    41    17    18 1   
    42    18    31 1   
    43    18    61 2   
    44    19    51 1   
    45    19    52 1   
    46    21    22 2   
    47    21    23 1   
    48    23    24 1   
    49    23    30 1   
    50    24    25 1   
    51    24    53 1   
    52    24    54 1   
    53    25    55 1   
    54    25    56 1   
    55    26    27 1   
    56    27    28 1   
    57    28    57 1   
    58    28    58 1   
    59    28    62 1   
    60    29    59 1   
    61    29    62 1   
    62    30    60 1   
    63    31    32 1   
    64    32    33 2   
    65    43    62 1   
    66    44    62 1   
@<TRIPOS>SUBSTRUCTURE
     1 LQK         1 TEMP              0 ****  ****    0 ROOT
