@<TRIPOS>MOLECULE
LQK
   62    66     1     0     0
SMALL
abcg2


@<TRIPOS>ATOM
      1 C2          33.3390     4.3270    25.0600 c          1 LQK       0.612100
      2 C4          34.2190     5.2690    25.8260 cy         1 LQK      -0.167700
      3 C6          34.2890     5.0990    27.3530 cy         1 LQK      -0.071400
      4 C7          35.7890     5.4590    27.2820 cy         1 LQK      -0.074400
      5 C8          35.7730     5.0950    25.7890 cy         1 LQK      -0.142700
      6 C15         35.6050     2.2570    21.7250 ca         1 LQK      -0.091300
      7 C16         36.5470     1.5790    22.4830 ca         1 LQK      -0.049300
      8 C17         36.9590     0.2940    22.1160 ca         1 LQK      -0.136000
      9 C18         36.4280    -0.3050    20.9900 ca         1 LQK      -0.072000
     10 C19         35.4690     0.3520    20.2230 ca         1 LQK      -0.192000
     11 C27         38.6330     2.5530    23.5410 c3         1 LQK       0.095000
     12 C31         39.5760     4.5500    26.5110 ca         1 LQK      -0.134600
     13 C32         39.7650     5.6530    27.3180 ca         1 LQK      -0.046000
     14 C33         40.1010     5.4190    28.6490 ca         1 LQK      -0.101000
     15 C34         40.2420     4.1230    29.1350 ca         1 LQK      -0.101000
     16 C35         40.0510     3.0220    28.3110 ca         1 LQK      -0.046000
     17 C36         39.7140     3.2670    26.9960 ca         1 LQK      -0.134600
     18 C37         39.4340     2.3300    25.8940 c          1 LQK       0.592600
     19 N1          32.5490     4.8980    24.1310 nt         1 LQK      -0.618000
     20 O3          33.3400     3.1260    25.2790 o          1 LQK      -0.579100
     21 C10         36.2680     3.6830    25.4850 c          1 LQK       0.627100
     22 O11         36.5770     2.8650    26.3400 o          1 LQK      -0.592100
     23 N12         36.4410     3.3850    24.1740 n          1 LQK      -0.403800
     24 C13         36.0780     4.2910    23.0910 c6         1 LQK       0.094000
     25 C14         35.1450     3.6240    22.1010 c6         1 LQK      -0.037100
     26 C20         35.0560     1.6210    20.6030 ca         1 LQK       0.145100
     27 O21         34.1220     2.3410    19.9560 os         1 LQK      -0.359100
     28 C22         33.4910     1.7720    18.8170 c3         1 LQK       0.156600
     29 O24         31.8510     2.2350    17.2010 oh         1 LQK      -0.662000
     30 C25         37.1300     2.1890    23.7300 c6         1 LQK       0.135000
     31 N28         39.1360     3.1020    24.7890 n          1 LQK      -0.385400
     32 C29         39.2000     4.4630    25.0840 c          1 LQK       0.592600
     33 O30         39.0000     5.3620    24.3070 o          1 LQK      -0.497000
     34 H1          34.0010     6.3120    25.5780 hc         1 LQK       0.056700
     35 H2          33.6480     5.7540    27.9430 hc         1 LQK       0.069200
     36 H3          34.1240     4.0650    27.6460 hc         1 LQK       0.069200
     37 H4          36.4730     4.9170    27.9320 hc         1 LQK       0.061200
     38 H5          35.9540     6.5290    27.4060 hc         1 LQK       0.061200
     39 H6          36.2770     5.8210    25.1520 hc         1 LQK       0.078700
     40 H7          37.6740    -0.2430    22.7280 ha         1 LQK       0.124000
     41 H8          36.7370    -1.3010    20.7000 ha         1 LQK       0.115000
     42 H9          35.0600    -0.1410    19.3520 ha         1 LQK       0.121000
     43 H10         32.9510     3.7330    18.1420 h1         1 LQK       0.031200
     44 H11         31.7290     2.9490    19.1500 h1         1 LQK       0.031200
     45 H12         39.2190     1.6840    23.2490 h1         1 LQK       0.072700
     46 H13         38.7610     3.2960    22.7480 h1         1 LQK       0.072700
     47 H14         39.6490     6.6600    26.9390 ha         1 LQK       0.136500
     48 H15         40.2480     6.2550    29.3180 ha         1 LQK       0.120000
     49 H16         40.5050     3.9740    30.1740 ha         1 LQK       0.120000
     50 H17         40.1660     2.0180    28.7040 ha         1 LQK       0.136500
     51 H18         31.9160     4.3380    23.5750 hn         1 LQK       0.311500
     52 H19         32.5780     5.8840    23.9310 hn         1 LQK       0.311500
     53 H20         36.9680     4.6330    22.5650 h1         1 LQK       0.049200
     54 H21         35.6070     5.1880    23.4820 h1         1 LQK       0.049200
     55 H22         35.1090     4.2390    21.2000 hc         1 LQK       0.060700
     56 H23         34.1310     3.5990    22.5050 hc         1 LQK       0.060700
     57 H24         33.0090     0.8160    19.0730 h1         1 LQK       0.051200
     58 H25         34.2280     1.5890    18.0250 h1         1 LQK       0.051200
     59 H26         31.1890     2.8530    16.8900 ho         1 LQK       0.450000
     60 H27         37.0510     1.4480    24.5230 h1         1 LQK       0.109700
     61 O38         39.4650     1.1130    25.9100 o          1 LQK      -0.497000
     62 C23         32.4600     2.7750    18.3510 c3         1 LQK       0.158600
@<TRIPOS>BOND
     1     1     2 1   
     2     1    19 1   
     3     1    20 2   
     4     2     3 1   
     5     2     5 1   
     6     2    34 1   
     7     3     4 1   
     8     3    35 1   
     9     3    36 1   
    10     4     5 1   
    11     4    37 1   
    12     4    38 1   
    13     5    21 1   
    14     5    39 1   
    15     6     7 ar  
    16     6    25 1   
    17     6    26 ar  
    18     7     8 ar  
    19     7    30 1   
    20     8     9 ar  
    21     8    40 1   
    22     9    10 ar  
    23     9    41 1   
    24    10    26 ar  
    25    10    42 1   
    26    11    30 1   
    27    11    31 1   
    28    11    45 1   
    29    11    46 1   
    30    12    13 ar  
    31    12    17 ar  
    32    12    32 1   
    33    13    14 ar  
    34    13    47 1   
    35    14    15 ar  
    36    14    48 1   
    37    15    16 ar  
    38    15    49 1   
    39    16    17 ar  
    40    16    50 1   
    41    17    18 1   
    42    18    31 1   
    43    18    61 2   
    44    19    51 1   
    45    19    52 1   
    46    21    22 2   
    47    21    23 1   
    48    23    24 1   
    49    23    30 1   
    50    24    25 1   
    51    24    53 1   
    52    24    54 1   
    53    25    55 1   
    54    25    56 1   
    55    26    27 1   
    56    27    28 1   
    57    28    57 1   
    58    28    58 1   
    59    28    62 1   
    60    29    59 1   
    61    29    62 1   
    62    30    60 1   
    63    31    32 1   
    64    32    33 2   
    65    43    62 1   
    66    44    62 1   
@<TRIPOS>SUBSTRUCTURE
     1 LQK         1 TEMP              0 ****  ****    0 ROOT
