@<TRIPOS>MOLECULE
LQL
   51    54     1     0     0
SMALL
No Charge or Current Charge


@<TRIPOS>ATOM
      1 N1          11.1260     1.6770    19.7200 n          1 LQL      -0.406800
      2 N3          10.7180    -0.8000    15.5090 nb         1 LQL      -0.665000
      3 C4          10.0530    -1.4590    26.7090 cc         1 LQL      -0.140000
      4 C5           8.7250    -1.3000    27.0070 cd         1 LQL      -0.244000
      5 C6           9.2230     0.8940    21.2050 c6         1 LQL       0.082500
      6 C7          10.5940     0.5460    20.5400 c6         1 LQL       0.103000
      7 C8          11.2460     2.9350    20.5110 c6         1 LQL       0.085000
      8 C10          9.4850     2.1210    23.4120 ca         1 LQL       0.251000
      9 C13          9.6980     2.0120    26.2230 ca         1 LQL       0.110000
     10 C15         10.7480     2.0570    24.0270 ca         1 LQL      -0.113000
     11 C17         11.2100     0.4330    17.5430 ca         1 LQL      -0.205600
     12 C20         12.2050    -1.7370    17.1710 ca         1 LQL      -0.171000
     13 C21         12.0620    -0.6030    17.9840 ca         1 LQL      -0.046000
     14 C            8.5830    -0.3160    21.9790 c          1 LQL       0.593100
     15 O            7.3950    -0.3230    22.2840 o          1 LQL      -0.594100
     16 C1           9.0210    -2.4600    23.2050 c3         1 LQL       0.176300
     17 C11          8.3300     2.1220    24.2090 ca         1 LQL      -0.131000
     18 C12          8.4300     2.0650    25.6080 ca         1 LQL       0.140000
     19 C14         10.8560     2.0040    25.4280 ca         1 LQL      -0.081000
     20 C16         11.0030     1.7050    18.3130 c          1 LQL       0.623700
     21 C18         10.5810     0.2960    16.2940 ca         1 LQL       0.382900
     22 C19         11.5160    -1.7990    15.9500 ca         1 LQL       0.355900
     23 C2           9.1450    -2.0460    24.6450 cd         1 LQL      -0.266300
     24 C3          10.2910    -1.8770    25.3780 cc         1 LQL      -0.124000
     25 C9           9.9260     3.3150    21.2350 c6         1 LQL       0.164800
     26 N2           9.3660     2.1680    22.0070 nh         1 LQL      -0.788400
     27 O1          10.8230     2.7600    17.7200 o          1 LQL      -0.579100
     28 S            7.7010    -1.6650    25.6060 ss         1 LQL       0.258000
     29 Cl           6.9510     2.0670    26.5710 cl         1 LQL      -0.169000
     30 Cl1          9.8620     1.9660    27.9790 cl         1 LQL      -0.170000
     31 H6           8.2770    -0.9860    27.9420 h4         1 LQL       0.153000
     32 H            8.5120     1.0820    20.3880 h1         1 LQL       0.071700
     33 H8          10.4520    -0.3510    19.9230 h1         1 LQL       0.070200
     34 H7          11.3330     0.3040    21.3160 h1         1 LQL       0.070200
     35 H9          12.0380     2.8010    21.2600 h1         1 LQL       0.071700
     36 H10         11.5610     3.7700    19.8710 h1         1 LQL       0.071700
     37 H15         11.6470     2.0440    23.4190 ha         1 LQL       0.125000
     38 H18         12.8480    -2.5600    17.4730 ha         1 LQL       0.129000
     39 H19         12.6140    -0.5280    18.9200 ha         1 LQL       0.124000
     40 H2           7.9880    -2.7610    22.9820 h1         1 LQL       0.066200
     41 H3           9.6750    -3.3210    23.0130 h1         1 LQL       0.066200
     42 H13          7.3540     2.1650    23.7370 ha         1 LQL       0.144000
     43 H14         11.8360     1.9560    25.8970 ha         1 LQL       0.133000
     44 H16          9.9300     1.0790    15.9060 h4         1 LQL       0.033100
     45 H17         11.6120    -2.6680    15.3010 h4         1 LQL       0.023100
     46 H4          11.2930    -2.0410    24.9920 ha         1 LQL       0.127000
     47 H12         10.1100     4.1740    21.8970 h1         1 LQL       0.055200
     48 H11          9.1910     3.6460    20.4860 h1         1 LQL       0.055200
     49 N            9.4160    -1.3600    22.3340 ns         1 LQL      -0.485900
     50 H5          10.8610    -1.2820    27.4140 ha         1 LQL       0.134000
     51 H1          10.3940    -1.2810    22.0910 hn         1 LQL       0.330500
@<TRIPOS>BOND
     1     1     6 1   
     2     1     7 1   
     3     1    20 1   
     4     2    21 ar  
     5     2    22 ar  
     6     3     4 2   
     7     3    24 1   
     8     3    50 1   
     9     4    28 1   
    10     4    31 1   
    11     5     6 1   
    12     5    14 1   
    13     5    26 1   
    14     5    32 1   
    15     6    33 1   
    16     6    34 1   
    17     7    25 1   
    18     7    35 1   
    19     7    36 1   
    20     8    10 ar  
    21     8    17 ar  
    22     8    26 1   
    23     9    18 ar  
    24     9    19 ar  
    25     9    30 1   
    26    10    19 ar  
    27    10    37 1   
    28    11    13 ar  
    29    11    20 1   
    30    11    21 ar  
    31    12    13 ar  
    32    12    22 ar  
    33    12    38 1   
    34    13    39 1   
    35    14    15 2   
    36    14    49 1   
    37    16    23 1   
    38    16    40 1   
    39    16    41 1   
    40    16    49 1   
    41    17    18 ar  
    42    17    42 1   
    43    18    29 1   
    44    19    43 1   
    45    20    27 2   
    46    21    44 1   
    47    22    45 1   
    48    23    24 2   
    49    23    28 1   
    50    24    46 1   
    51    25    26 1   
    52    25    47 1   
    53    25    48 1   
    54    49    51 1   
@<TRIPOS>SUBSTRUCTURE
     1 LQL         1 TEMP              0 ****  ****    0 ROOT
