@<TRIPOS>MOLECULE
LQL
   51    54     1     0     0
SMALL
bcc


@<TRIPOS>ATOM
      1 N1          11.5250     1.3250    19.5320 n          1 LQL      -0.473800
      2 N3           8.9560    -0.0530    15.7960 nb         1 LQL      -0.665000
      3 C4           9.0110    -1.1030    27.2310 cc         1 LQL      -0.158000
      4 C5           7.7950    -1.1670    26.6230 cd         1 LQL      -0.117100
      5 C6          10.1080     0.5080    21.3600 c6         1 LQL       0.082500
      6 C7          11.0890     0.1400    20.2350 c6         1 LQL       0.103000
      7 C8          12.1430     2.2900    20.4220 c6         1 LQL       0.085000
      8 C10          9.9870     1.8100    23.4140 ca         1 LQL       0.112600
      9 C13          8.6950     2.3470    25.8360 ca         1 LQL       0.018400
     10 C15         10.7000     2.2930    24.5130 ca         1 LQL      -0.131000
     11 C17         10.6100     0.6080    17.3920 ca         1 LQL      -0.270900
     12 C20         10.8520    -1.4480    16.2020 ca         1 LQL      -0.254300
     13 C21         11.3350    -0.5500    17.1390 ca         1 LQL      -0.064000
     14 C            9.7820    -0.7760    22.1220 c          1 LQL       0.660100
     15 O            8.7840    -1.4310    21.8640 o          1 LQL      -0.594100
     16 C1          10.4880    -2.2400    23.9480 c3         1 LQL       0.176300
     17 C11          8.6140     1.6280    23.5370 ca         1 LQL      -0.149000
     18 C12          7.9780     1.8850    24.7440 ca         1 LQL       0.048400
     19 C14         10.0610     2.5640    25.7060 ca         1 LQL      -0.099000
     20 C16         11.1150     1.6880    18.2940 c          1 LQL       0.690700
     21 C18          9.4330     0.8110    16.6800 ca         1 LQL       0.448200
     22 C19          9.6560    -1.1570    15.5630 ca         1 LQL       0.421200
     23 C2           9.6420    -1.8460    25.1210 cd         1 LQL      -0.121400
     24 C3          10.0700    -1.4940    26.3670 cc         1 LQL      -0.142000
     25 C9          11.1810     2.6870    21.5200 c6         1 LQL       0.164800
     26 N2          10.7000     1.5040    22.2340 nh         1 LQL      -0.650000
     27 O1          11.1880     2.8320    17.8740 o          1 LQL      -0.579100
     28 S            7.9300    -1.6960    25.0000 ss         1 LQL      -0.031800
     29 CL           6.2790     1.6240    24.8600 cl         1 LQL      -0.077400
     30 CL1          7.9230     2.6380    27.3470 cl         1 LQL      -0.078400
     31 H6           6.8310    -0.9230    27.0410 h4         1 LQL       0.171000
     32 H            9.1780     0.8540    20.8840 h1         1 LQL       0.071700
     33 H8          10.5880    -0.5530    19.5640 h1         1 LQL       0.070200
     34 H7          11.9630    -0.3680    20.6510 h1         1 LQL       0.070200
     35 H9          13.0330     1.8290    20.8580 h1         1 LQL       0.071700
     36 H10         12.4570     3.1670    19.8620 h1         1 LQL       0.071700
     37 H15         11.7710     2.4310    24.4400 ha         1 LQL       0.143000
     38 H18         11.3900    -2.3570    15.9680 ha         1 LQL       0.147000
     39 H19         12.2680    -0.7470    17.6530 ha         1 LQL       0.142000
     40 H2          10.0560    -3.0820    23.4080 h1         1 LQL       0.066200
     41 H3          11.4630    -2.5610    24.3120 h1         1 LQL       0.066200
     42 H13          8.0150     1.2810    22.7060 ha         1 LQL       0.162000
     43 H14         10.6290     2.9220    26.5540 ha         1 LQL       0.151000
     44 H16          8.8460     1.7090    16.8430 h4         1 LQL       0.033100
     45 H17          9.2490    -1.8440    14.8290 h4         1 LQL       0.023100
     46 H4          11.1120    -1.5130    26.6550 ha         1 LQL       0.145000
     47 H12         11.6950     3.3430    22.2220 h1         1 LQL       0.055200
     48 H11         10.3420     3.2550    21.0930 h1         1 LQL       0.055200
     49 N           10.6990    -1.1420    23.0290 ns         1 LQL      -0.552900
     50 H5           9.1510    -0.7870    28.2550 ha         1 LQL       0.152000
     51 H1          11.4460    -0.4950    23.2310 hn         1 LQL       0.330500
@<TRIPOS>BOND
     1     1     6 1   
     2     1     7 1   
     3     1    20 1   
     4     2    21 ar  
     5     2    22 ar  
     6     3     4 2   
     7     3    24 1   
     8     3    50 1   
     9     4    28 1   
    10     4    31 1   
    11     5     6 1   
    12     5    14 1   
    13     5    26 1   
    14     5    32 1   
    15     6    33 1   
    16     6    34 1   
    17     7    25 1   
    18     7    35 1   
    19     7    36 1   
    20     8    10 ar  
    21     8    17 ar  
    22     8    26 1   
    23     9    18 ar  
    24     9    19 ar  
    25     9    30 1   
    26    10    19 ar  
    27    10    37 1   
    28    11    13 ar  
    29    11    20 1   
    30    11    21 ar  
    31    12    13 ar  
    32    12    22 ar  
    33    12    38 1   
    34    13    39 1   
    35    14    15 2   
    36    14    49 1   
    37    16    23 1   
    38    16    40 1   
    39    16    41 1   
    40    16    49 1   
    41    17    18 ar  
    42    17    42 1   
    43    18    29 1   
    44    19    43 1   
    45    20    27 2   
    46    21    44 1   
    47    22    45 1   
    48    23    24 2   
    49    23    28 1   
    50    24    46 1   
    51    25    26 1   
    52    25    47 1   
    53    25    48 1   
    54    49    51 1   
@<TRIPOS>SUBSTRUCTURE
     1 LQL         1 TEMP              0 ****  ****    0 ROOT
