@<TRIPOS>MOLECULE
LQO
   36    36     1     0     0
SMALL
bcc


@<TRIPOS>ATOM
      1 C4         180.2780   175.2280   177.0770 ca         1 LQO      -0.129000
      2 C5         180.5090   172.9480   177.7840 ca         1 LQO      -0.129000
      3 C6         179.7110   175.5530   178.3040 ca         1 LQO      -0.121000
      4 C7         179.9480   173.2750   179.0090 ca         1 LQO      -0.121000
      5 C10        179.5390   174.5800   179.2810 ca         1 LQO      -0.102300
      6 C1         177.8560   178.4740   181.3010 c3         1 LQO       0.037700
      7 C2         175.5610   178.7990   184.2850 c3         1 LQO      -0.175100
      8 C3         180.6770   173.9260   176.8100 ca         1 LQO      -0.130000
      9 C9         176.7230   178.3280   183.4500 c          1 LQO       0.673100
     10 C11        177.6990   176.9990   180.9150 c          1 LQO       0.673100
     11 C15        177.7400   179.3430   180.0520 c3         1 LQO       0.126400
     12 C17        178.6860   179.6650   177.9400 c3         1 LQO       0.123700
     13 N0         176.8200   178.8680   182.2210 ns         1 LQO      -0.567900
     14 N13        178.8270   176.2740   180.9540 ns         1 LQO      -0.550900
     15 O12        176.6120   176.5580   180.5810 o          1 LQO      -0.605100
     16 O14        177.5290   177.5040   183.8560 o          1 LQO      -0.603100
     17 O16        178.7250   178.9420   179.1470 os         1 LQO      -0.408600
     18 H1         180.4070   175.9990   176.3270 ha         1 LQO       0.127500
     19 H2         180.8200   171.9290   177.5890 ha         1 LQO       0.127500
     20 H3         179.4090   176.5740   178.4980 ha         1 LQO       0.136500
     21 H4         179.8270   172.5070   179.7640 ha         1 LQO       0.136500
     22 H5         177.8840   174.4750   180.6320 h1         1 LQO       0.066700
     23 H6         179.4460   174.3540   181.4050 h1         1 LQO       0.066700
     24 H7         178.8360   178.6480   181.7570 h1         1 LQO       0.076700
     25 H8         174.8880   177.9620   184.4680 hc         1 LQO       0.062033
     26 H9         175.9240   179.1410   185.2530 hc         1 LQO       0.062033
     27 H10        174.9890   179.6030   183.8250 hc         1 LQO       0.062033
     28 H11        181.1180   173.6750   175.8550 ha         1 LQO       0.128000
     29 H12        177.8620   180.3970   180.3360 h1         1 LQO       0.035700
     30 H13        176.7330   179.2340   179.6230 h1         1 LQO       0.035700
     31 H14        179.4820   179.2870   177.3010 h1         1 LQO       0.034033
     32 H15        177.7300   179.5400   177.4200 h1         1 LQO       0.034033
     33 H16        178.8480   180.7370   178.1030 h1         1 LQO       0.034033
     34 H17        176.0980   179.4950   181.9020 hn         1 LQO       0.321500
     35 H18        179.6780   176.7230   181.2560 hn         1 LQO       0.320500
     36 C8         178.8980   174.8760   180.6180 c3         1 LQO       0.146300
@<TRIPOS>BOND
     1     1     3 ar  
     2     1     8 ar  
     3     1    18 1   
     4     2     4 ar  
     5     2     8 ar  
     6     2    19 1   
     7     3     5 ar  
     8     3    20 1   
     9     4     5 ar  
    10     4    21 1   
    11     5    36 1   
    12     6    10 1   
    13     6    11 1   
    14     6    13 1   
    15     6    24 1   
    16     7     9 1   
    17     7    25 1   
    18     7    26 1   
    19     7    27 1   
    20     8    28 1   
    21     9    13 1   
    22     9    16 2   
    23    10    14 1   
    24    10    15 2   
    25    11    17 1   
    26    11    29 1   
    27    11    30 1   
    28    12    17 1   
    29    12    31 1   
    30    12    32 1   
    31    12    33 1   
    32    13    34 1   
    33    14    35 1   
    34    14    36 1   
    35    22    36 1   
    36    23    36 1   
@<TRIPOS>SUBSTRUCTURE
     1 LQO         1 TEMP              0 ****  ****    0 ROOT
