@<TRIPOS>MOLECULE
LQO
   36    36     1     0     0
SMALL
No Charge or Current Charge


@<TRIPOS>ATOM
      1 C4         180.0420   174.9330   176.3760 ca         1 LQO      -0.111000
      2 C5         181.2830   173.4920   177.8930 ca         1 LQO      -0.111000
      3 C6         179.0470   175.1050   177.3540 ca         1 LQO      -0.103000
      4 C7         180.2880   173.6640   178.8720 ca         1 LQO      -0.103000
      5 C10        179.1630   174.4700   178.6060 ca         1 LQO      -0.102300
      6 C1         177.6700   177.9300   181.7260 c3         1 LQO       0.037700
      7 C2         175.5380   179.7090   184.4230 c3         1 LQO      -0.175100
      8 C3         181.1600   174.1260   176.6460 ca         1 LQO      -0.112000
      9 C9         176.7640   179.4350   183.5620 c          1 LQO       0.606100
     10 C11        177.3280   176.5050   181.1980 c          1 LQO       0.606100
     11 C15        177.9030   178.9400   180.5710 c3         1 LQO       0.149600
     12 C17        179.4550   179.4460   178.7840 c3         1 LQO       0.146900
     13 N0         176.6240   178.3950   182.6730 ns         1 LQO      -0.500900
     14 N13        178.2240   175.9700   180.3030 ns         1 LQO      -0.483900
     15 O12        176.3290   175.8850   181.5470 o          1 LQO      -0.605100
     16 O14        177.7930   180.0860   183.6570 o          1 LQO      -0.603100
     17 O16        179.1300   178.5990   179.8990 os         1 LQO      -0.455000
     18 H1         179.9470   175.4270   175.4110 ha         1 LQO       0.109500
     19 H2         182.1490   172.8690   178.1030 ha         1 LQO       0.109500
     20 H3         178.1850   175.7340   177.1390 ha         1 LQO       0.118500
     21 H4         180.3930   173.1720   179.8360 ha         1 LQO       0.118500
     22 H5         177.0960   174.5950   179.1980 h1         1 LQO       0.066700
     23 H6         178.1610   173.8820   180.4290 h1         1 LQO       0.066700
     24 H7         178.6100   177.8360   182.2840 h1         1 LQO       0.076700
     25 H8         175.2570   178.7880   184.9470 hc         1 LQO       0.062033
     26 H9         175.6890   180.5410   185.1190 hc         1 LQO       0.062033
     27 H10        174.6740   179.8780   183.7700 hc         1 LQO       0.062033
     28 H11        181.9310   173.9940   175.8890 ha         1 LQO       0.110000
     29 H12        177.9710   179.9570   180.9790 h1         1 LQO       0.035700
     30 H13        177.0510   178.9080   179.8790 h1         1 LQO       0.035700
     31 H14        180.3990   179.1260   178.3250 h1         1 LQO       0.034033
     32 H15        178.6700   179.4010   178.0180 h1         1 LQO       0.034033
     33 H16        179.5680   180.4900   179.1060 h1         1 LQO       0.034033
     34 H17        175.7400   177.8970   182.6880 hn         1 LQO       0.321500
     35 H18        178.9950   176.5700   180.0260 hn         1 LQO       0.320500
     36 C8         178.0880   174.6660   179.6630 c3         1 LQO       0.146300
@<TRIPOS>BOND
     1     1     3 ar  
     2     1     8 ar  
     3     1    18 1   
     4     2     4 ar  
     5     2     8 ar  
     6     2    19 1   
     7     3     5 ar  
     8     3    20 1   
     9     4     5 ar  
    10     4    21 1   
    11     5    36 1   
    12     6    10 1   
    13     6    11 1   
    14     6    13 1   
    15     6    24 1   
    16     7     9 1   
    17     7    25 1   
    18     7    26 1   
    19     7    27 1   
    20     8    28 1   
    21     9    13 1   
    22     9    16 2   
    23    10    14 1   
    24    10    15 2   
    25    11    17 1   
    26    11    29 1   
    27    11    30 1   
    28    12    17 1   
    29    12    31 1   
    30    12    32 1   
    31    12    33 1   
    32    13    34 1   
    33    14    35 1   
    34    14    36 1   
    35    22    36 1   
    36    23    36 1   
@<TRIPOS>SUBSTRUCTURE
     1 LQO         1 TEMP              0 ****  ****    0 ROOT
