@<TRIPOS>MOLECULE
LQP
   30    31     1     0     0
SMALL
abcg2


@<TRIPOS>ATOM
      1 N1          45.2100    28.5560   111.7070 n          1 LQP      -0.415800
      2 C4          45.2930    27.1570   111.2980 c5         1 LQP       0.105500
      3 C5          46.7570    26.8140   111.5130 c5         1 LQP      -0.083200
      4 C6          47.7000    27.1860   110.3670 c5         1 LQP      -0.073900
      5 C7          49.0540    27.3720   111.0560 c5         1 LQP      -0.079400
      6 C8          48.7350    27.9020   112.4730 c5         1 LQP      -0.073900
      7 C10         46.4170    29.0190   112.3830 c5         1 LQP       0.105500
      8 F1          41.6640    32.1290   109.9830 f          1 LQP      -0.122500
      9 C1          42.9600    31.8290   110.1820 c3         1 LQP       0.388300
     10 F2          43.6610    32.9690   109.9220 f          1 LQP      -0.122500
     11 O1          43.0820    31.4890   111.4820 os         1 LQP      -0.462000
     12 C2          44.2430    30.7710   111.8350 c3         1 LQP       0.089600
     13 C3          44.1400    29.3050   111.4220 c          1 LQP       0.569100
     14 O2          43.1430    28.8700   110.8640 o          1 LQP      -0.590100
     15 C9          47.2180    27.7400   112.6450 c5         1 LQP      -0.083200
     16 H1          44.6390    26.5370   111.9170 h1         1 LQP       0.053200
     17 H2          44.9770    27.0360   110.2600 h1         1 LQP       0.053200
     18 H3          46.8820    25.7610   111.7730 hc         1 LQP       0.068200
     19 H4          47.7250    26.4310   109.5800 hc         1 LQP       0.047950
     20 H5          47.3740    28.1210   109.8990 hc         1 LQP       0.047950
     21 H6          49.5630    26.4090   111.1280 hc         1 LQP       0.045700
     22 H7          49.7160    28.0370   110.5000 hc         1 LQP       0.045700
     23 H8          49.2740    27.3320   113.2300 hc         1 LQP       0.047950
     24 H9          49.0380    28.9430   112.5980 hc         1 LQP       0.047950
     25 H10         46.9760    29.7120   111.7460 h1         1 LQP       0.053200
     26 H11         46.1830    29.5420   113.3120 h1         1 LQP       0.053200
     27 H12         43.2790    31.0710   109.4640 h3         1 LQP       0.067700
     28 H13         44.3280    30.8490   112.9210 h1         1 LQP       0.074200
     29 H14         45.1480    31.2270   111.4170 h1         1 LQP       0.074200
     30 H15         46.9530    27.3420   113.6270 hc         1 LQP       0.068200
@<TRIPOS>BOND
     1     1     2 1   
     2     1     7 1   
     3     1    13 1   
     4     2     3 1   
     5     2    16 1   
     6     2    17 1   
     7     3     4 1   
     8     3    15 1   
     9     3    18 1   
    10     4     5 1   
    11     4    19 1   
    12     4    20 1   
    13     5     6 1   
    14     5    21 1   
    15     5    22 1   
    16     6    15 1   
    17     6    23 1   
    18     6    24 1   
    19     7    15 1   
    20     7    25 1   
    21     7    26 1   
    22     8     9 1   
    23     9    10 1   
    24     9    11 1   
    25     9    27 1   
    26    11    12 1   
    27    12    13 1   
    28    12    28 1   
    29    12    29 1   
    30    13    14 2   
    31    15    30 1   
@<TRIPOS>SUBSTRUCTURE
     1 LQP         1 TEMP              0 ****  ****    0 ROOT
