@<TRIPOS>MOLECULE
LQP
   30    31     1     0     0
SMALL
No Charge or Current Charge


@<TRIPOS>ATOM
      1 N1          45.2380    28.5270   111.7130 n          1 LQP      -0.415800
      2 C4          45.3340    27.1200   111.2570 c5         1 LQP       0.105500
      3 C5          46.8190    26.7550   111.5400 c5         1 LQP      -0.083200
      4 C6          47.7050    27.2430   110.3580 c5         1 LQP      -0.073900
      5 C7          49.0800    27.2790   111.0730 c5         1 LQP      -0.079400
      6 C8          48.7660    27.9460   112.4550 c5         1 LQP      -0.073900
      7 C10         46.4560    29.0230   112.3930 c5         1 LQP       0.105500
      8 F1          41.7120    32.5610   109.8920 f          1 LQP      -0.122500
      9 C1          42.8590    31.8870   110.1320 c3         1 LQP       0.388300
     10 F2          43.8670    32.6920   109.7250 f          1 LQP      -0.122500
     11 O1          42.9740    31.5920   111.5390 os         1 LQP      -0.462000
     12 C2          44.1390    30.8100   111.9280 c3         1 LQP       0.089600
     13 C3          44.1120    29.3310   111.4360 c          1 LQP       0.569100
     14 O2          43.1560    28.8590   110.8280 o          1 LQP      -0.590100
     15 C9          47.2330    27.7000   112.6900 c5         1 LQP      -0.083200
     16 H1          44.6560    26.4870   111.8450 h1         1 LQP       0.053200
     17 H2          45.0730    27.0050   110.1970 h1         1 LQP       0.053200
     18 H3          46.9690    25.6920   111.7680 hc         1 LQP       0.068200
     19 H4          47.6950    26.5440   109.5130 hc         1 LQP       0.047950
     20 H5          47.4240    28.2280   109.9670 hc         1 LQP       0.047950
     21 H6          49.4730    26.2640   111.2110 hc         1 LQP       0.045700
     22 H7          49.8310    27.8370   110.5030 hc         1 LQP       0.045700
     23 H8          49.3670    27.4860   113.2480 hc         1 LQP       0.047950
     24 H9          49.0260    29.0110   112.4570 hc         1 LQP       0.047950
     25 H10         47.0080    29.7010   111.7290 h1         1 LQP       0.053200
     26 H11         46.2270    29.5640   113.3210 h1         1 LQP       0.053200
     27 H12         42.8630    30.9730   109.5290 h3         1 LQP       0.067700
     28 H13         44.2130    30.7750   113.0210 h1         1 LQP       0.074200
     29 H14         45.0620    31.2730   111.5560 h1         1 LQP       0.074200
     30 H15         46.9930    27.2920   113.6800 hc         1 LQP       0.068200
@<TRIPOS>BOND
     1     1     2 1   
     2     1     7 1   
     3     1    13 1   
     4     2     3 1   
     5     2    16 1   
     6     2    17 1   
     7     3     4 1   
     8     3    15 1   
     9     3    18 1   
    10     4     5 1   
    11     4    19 1   
    12     4    20 1   
    13     5     6 1   
    14     5    21 1   
    15     5    22 1   
    16     6    15 1   
    17     6    23 1   
    18     6    24 1   
    19     7    15 1   
    20     7    25 1   
    21     7    26 1   
    22     8     9 1   
    23     9    10 1   
    24     9    11 1   
    25     9    27 1   
    26    11    12 1   
    27    12    13 1   
    28    12    28 1   
    29    12    29 1   
    30    13    14 2   
    31    15    30 1   
@<TRIPOS>SUBSTRUCTURE
     1 LQP         1 TEMP              0 ****  ****    0 ROOT
