@<TRIPOS>MOLECULE
LQQ
   62    66     1     0     0
SMALL
No Charge or Current Charge


@<TRIPOS>ATOM
      1 O01         33.1700    28.5950    61.3880 o          1 LQQ      -0.500100
      2 C02         33.0350    27.8160    60.4540 c          1 LQQ       0.610300
      3 C01         33.4140    28.3600    59.0690 c3         1 LQQ      -0.191100
      4 C03         32.5510    26.4030    60.6500 cc         1 LQQ      -0.310400
      5 C04         32.6660    25.7810    61.8960 cd         1 LQQ       0.093600
      6 C05         33.5080    26.3440    63.0340 c3         1 LQQ      -0.069900
      7 C06         32.0460    24.4630    62.0840 ca         1 LQQ      -0.294800
      8 C07         31.9430    23.8370    63.3480 ca         1 LQQ       0.202900
      9 N01         31.3740    22.6300    63.5050 nb         1 LQQ      -0.254000
     10 C08         30.8950    22.0530    62.3980 ca         1 LQQ       0.436900
     11 N02         30.9380    22.5570    61.1600 nb         1 LQQ      -0.303000
     12 C09         31.5170    23.7640    60.9950 ca         1 LQQ       0.317900
     13 N03         31.5150    24.3410    59.6860 n          1 LQQ      -0.351300
     14 C10         31.0110    23.5220    58.5080 c5         1 LQQ       0.097700
     15 C11         29.7050    24.1320    57.8960 c5         1 LQQ      -0.082400
     16 C12         30.0510    24.2830    56.3820 c5         1 LQQ      -0.077900
     17 C13         31.1320    23.1900    56.1560 c5         1 LQQ      -0.077900
     18 C14         32.0680    23.4530    57.3630 c5         1 LQQ      -0.082400
     19 C15         31.9060    25.6980    59.4990 c          1 LQQ       0.581200
     20 O02         31.6920    26.2630    58.4390 o          1 LQQ      -0.536000
     21 N04         30.3310    20.8070    62.5880 nu         1 LQQ      -0.880800
     22 C16         29.6530    19.9070    61.8140 ca         1 LQQ       0.566900
     23 N05         29.5830    18.7320    62.4390 nb         1 LQQ      -0.708000
     24 C17         28.9270    17.7280    61.7980 ca         1 LQQ       0.342900
     25 C18         28.3080    17.8540    60.5190 ca         1 LQQ       0.213000
     26 C19         28.3880    19.1200    59.8980 ca         1 LQQ      -0.117000
     27 C20         29.0680    20.1600    60.5590 ca         1 LQQ      -0.142000
     28 N06         27.6290    16.7640    59.8910 nh         1 LQQ      -0.770400
     29 C21         28.2550    15.4010    59.8490 c6         1 LQQ       0.154800
     30 C22         27.2020    14.2550    59.6920 c6         1 LQQ       0.144300
     31 N07         26.2700    14.4830    58.5490 n7         1 LQQ      -0.840400
     32 C23         25.5950    15.8060    58.6810 c6         1 LQQ       0.144300
     33 C24         26.6070    16.9910    58.8160 c6         1 LQQ       0.154800
     34 H011        34.0540    29.2470    59.1420 hc         1 LQQ       0.064367
     35 H012        32.4990    28.6320    58.5330 hc         1 LQQ       0.064367
     36 H013        33.8760    27.5760    58.4600 hc         1 LQQ       0.064367
     37 H051        33.9150    25.5620    63.6830 hc         1 LQQ       0.057033
     38 H052        32.9270    27.0330    63.6570 hc         1 LQQ       0.057033
     39 H053        34.3950    26.8700    62.6650 hc         1 LQQ       0.057033
     40 H1          32.2940    24.3040    64.2660 h4         1 LQQ       0.028100
     41 H10         30.7890    22.4840    58.7850 h1         1 LQQ       0.080700
     42 H111        29.3990    25.0830    58.3470 hc         1 LQQ       0.054450
     43 H112        28.8660    23.4420    58.0390 hc         1 LQQ       0.054450
     44 H121        30.4480    25.2810    56.1620 hc         1 LQQ       0.047200
     45 H122        29.1730    24.1410    55.7400 hc         1 LQQ       0.047200
     46 H131        31.6470    23.3040    55.1950 hc         1 LQQ       0.047200
     47 H132        30.7030    22.1800    56.1820 hc         1 LQQ       0.047200
     48 H141        32.7880    22.6420    57.5180 hc         1 LQQ       0.054450
     49 H142        32.6490    24.3680    57.2150 hc         1 LQQ       0.054450
     50 H04         30.5040    20.4180    63.5080 hn         1 LQQ       0.530000
     51 H17         28.8830    16.7840    62.3380 h4         1 LQQ       0.025100
     52 H19         27.9450    19.3010    58.9230 ha         1 LQQ       0.121000
     53 H20         29.1210    21.1410    60.1040 ha         1 LQQ       0.151000
     54 H211        28.8350    15.2070    60.7620 h1         1 LQQ       0.041200
     55 H212        28.9600    15.3500    59.0060 h1         1 LQQ       0.041200
     56 H221        26.6210    14.1810    60.6240 h1         1 LQQ       0.062950
     57 H222        27.7260    13.2970    59.5600 h1         1 LQQ       0.062950
     58 H07         26.8280    14.4980    57.6860 hn         1 LQQ       0.404000
     59 H231        24.9480    15.7950    59.5710 h1         1 LQQ       0.062950
     60 H232        24.9450    15.9820    57.8110 h1         1 LQQ       0.062950
     61 H241        27.1130    17.1380    57.8510 h1         1 LQQ       0.041200
     62 H242        26.0310    17.9040    59.0260 h1         1 LQQ       0.041200
@<TRIPOS>BOND
     1     1     2 2   
     2     2     3 1   
     3     2     4 1   
     4     3    34 1   
     5     3    35 1   
     6     3    36 1   
     7     4     5 2   
     8     4    19 1   
     9     5     6 1   
    10     5     7 1   
    11     6    37 1   
    12     6    38 1   
    13     6    39 1   
    14     7     8 ar  
    15     7    12 ar  
    16     8     9 ar  
    17     8    40 1   
    18     9    10 ar  
    19    10    11 ar  
    20    10    21 1   
    21    11    12 ar  
    22    12    13 1   
    23    13    14 1   
    24    13    19 1   
    25    14    15 1   
    26    14    18 1   
    27    14    41 1   
    28    15    16 1   
    29    15    42 1   
    30    15    43 1   
    31    16    17 1   
    32    16    44 1   
    33    16    45 1   
    34    17    18 1   
    35    17    46 1   
    36    17    47 1   
    37    18    48 1   
    38    18    49 1   
    39    19    20 2   
    40    21    22 1   
    41    21    50 1   
    42    22    23 ar  
    43    22    27 ar  
    44    23    24 ar  
    45    24    25 ar  
    46    24    51 1   
    47    25    26 ar  
    48    25    28 1   
    49    26    27 ar  
    50    26    52 1   
    51    27    53 1   
    52    28    29 1   
    53    28    33 1   
    54    29    30 1   
    55    29    54 1   
    56    29    55 1   
    57    30    31 1   
    58    30    56 1   
    59    30    57 1   
    60    31    32 1   
    61    31    58 1   
    62    32    33 1   
    63    32    59 1   
    64    32    60 1   
    65    33    61 1   
    66    33    62 1   
@<TRIPOS>SUBSTRUCTURE
     1 LQQ         1 TEMP              0 ****  ****    0 ROOT
