@<TRIPOS>MOLECULE
LQQ
   62    66     1     0     0
SMALL
bcc


@<TRIPOS>ATOM
      1 O01         32.3140    28.6620    60.3530 o          1 LQQ      -0.500100
      2 C02         32.9560    27.6680    60.1120 c          1 LQQ       0.610300
      3 C01         34.2970    27.6850    59.4480 c3         1 LQQ      -0.191100
      4 C03         32.4420    26.3110    60.5080 cc         1 LQQ      -0.310400
      5 C04         32.5980    25.7830    61.7420 cd         1 LQQ       0.093600
      6 C05         33.3410    26.4740    62.8410 c3         1 LQQ      -0.069900
      7 C06         32.0360    24.4870    61.9770 ca         1 LQQ      -0.425400
      8 C07         32.1230    23.8040    63.1930 ca         1 LQQ       0.531200
      9 N01         31.6100    22.6170    63.4030 nb         1 LQQ      -0.780000
     10 C08         30.9700    22.0590    62.3590 ca         1 LQQ       0.962900
     11 N02         30.8230    22.6020    61.1620 nb         1 LQQ      -0.829000
     12 C09         31.3480    23.8030    60.9590 ca         1 LQQ       0.646200
     13 N03         31.2110    24.3720    59.7180 n          1 LQQ      -0.418300
     14 C10         30.5130    23.6480    58.6440 c5         1 LQQ       0.097700
     15 C11         29.3110    24.3890    58.0070 c5         1 LQQ      -0.082400
     16 C12         29.5510    24.3210    56.4960 c5         1 LQQ      -0.077900
     17 C13         30.4610    23.1060    56.3110 c5         1 LQQ      -0.077900
     18 C14         31.4250    23.2030    57.4900 c5         1 LQQ      -0.082400
     19 C15         31.7450    25.6210    59.4420 c          1 LQQ       0.723700
     20 O02         31.6310    26.1280    58.3350 o          1 LQQ      -0.611500
     21 N04         30.4630    20.8340    62.6230 nu         1 LQQ      -0.825600
     22 C16         29.7600    19.9240    61.8390 ca         1 LQQ       0.632200
     23 N05         29.5990    18.7490    62.4380 nb         1 LQQ      -0.708000
     24 C17         28.9350    17.7870    61.8260 ca         1 LQQ       0.408200
     25 C18         28.3800    17.9060    60.5450 ca         1 LQQ       0.009300
     26 C19         28.5550    19.1490    59.9320 ca         1 LQQ      -0.135000
     27 C20         29.2340    20.1700    60.5770 ca         1 LQQ      -0.225300
     28 N06         27.6770    16.8490    59.9730 nh         1 LQQ      -0.632000
     29 C21         28.3430    15.5490    59.9700 c6         1 LQQ       0.154800
     30 C22         27.3540    14.4420    59.6340 c6         1 LQQ       0.144300
     31 N07         26.6330    14.6640    58.3950 n7         1 LQQ      -0.785200
     32 C23         26.0200    15.9790    58.4010 c6         1 LQQ       0.144300
     33 C24         26.9840    17.1140    58.7250 c6         1 LQQ       0.154800
     34 H011        35.0480    27.3290    60.1590 hc         1 LQQ       0.064367
     35 H012        34.5710    28.6820    59.1100 hc         1 LQQ       0.064367
     36 H013        34.3150    26.9920    58.6060 hc         1 LQQ       0.064367
     37 H051        34.1980    25.8790    63.1580 hc         1 LQQ       0.057033
     38 H052        32.7030    26.6130    63.7150 hc         1 LQQ       0.057033
     39 H053        33.7100    27.4530    62.5470 hc         1 LQQ       0.057033
     40 H1          32.6400    24.2560    64.0320 h4         1 LQQ       0.028100
     41 H10         30.1340    22.7550    59.1240 h1         1 LQQ       0.080700
     42 H111        29.1890    25.4090    58.3650 hc         1 LQQ       0.054450
     43 H112        28.3950    23.8580    58.2740 hc         1 LQQ       0.054450
     44 H121        30.0700    25.2200    56.1600 hc         1 LQQ       0.047200
     45 H122        28.6240    24.2470    55.9270 hc         1 LQQ       0.047200
     46 H131        30.9740    23.0970    55.3490 hc         1 LQQ       0.047200
     47 H132        29.8750    22.1830    56.3740 hc         1 LQQ       0.047200
     48 H141        31.9250    22.2610    57.7190 hc         1 LQQ       0.054450
     49 H142        32.1940    23.9450    57.2810 hc         1 LQQ       0.054450
     50 H04         30.6720    20.4900    63.5500 hn         1 LQQ       0.474800
     51 H17         28.8250    16.8670    62.3880 h4         1 LQQ       0.025100
     52 H19         28.1650    19.3460    58.9440 ha         1 LQQ       0.139000
     53 H20         29.3510    21.1270    60.0990 ha         1 LQQ       0.169000
     54 H211        28.7800    15.3470    60.9460 h1         1 LQQ       0.041200
     55 H212        29.1650    15.5410    59.2360 h1         1 LQQ       0.041200
     56 H221        26.6250    14.3570    60.4470 h1         1 LQQ       0.062950
     57 H222        27.8860    13.4910    59.5790 h1         1 LQQ       0.062950
     58 H07         27.2790    14.5990    57.6160 hn         1 LQQ       0.348800
     59 H231        25.2140    15.9780    59.1420 h1         1 LQQ       0.062950
     60 H232        25.5610    16.1690    57.4290 h1         1 LQQ       0.062950
     61 H241        27.6920    17.2470    57.8910 h1         1 LQQ       0.041200
     62 H242        26.4110    18.0390    58.8160 h1         1 LQQ       0.041200
@<TRIPOS>BOND
     1     1     2 2   
     2     2     3 1   
     3     2     4 1   
     4     3    34 1   
     5     3    35 1   
     6     3    36 1   
     7     4     5 2   
     8     4    19 1   
     9     5     6 1   
    10     5     7 1   
    11     6    37 1   
    12     6    38 1   
    13     6    39 1   
    14     7     8 ar  
    15     7    12 ar  
    16     8     9 ar  
    17     8    40 1   
    18     9    10 ar  
    19    10    11 ar  
    20    10    21 1   
    21    11    12 ar  
    22    12    13 1   
    23    13    14 1   
    24    13    19 1   
    25    14    15 1   
    26    14    18 1   
    27    14    41 1   
    28    15    16 1   
    29    15    42 1   
    30    15    43 1   
    31    16    17 1   
    32    16    44 1   
    33    16    45 1   
    34    17    18 1   
    35    17    46 1   
    36    17    47 1   
    37    18    48 1   
    38    18    49 1   
    39    19    20 2   
    40    21    22 1   
    41    21    50 1   
    42    22    23 ar  
    43    22    27 ar  
    44    23    24 ar  
    45    24    25 ar  
    46    24    51 1   
    47    25    26 ar  
    48    25    28 1   
    49    26    27 ar  
    50    26    52 1   
    51    27    53 1   
    52    28    29 1   
    53    28    33 1   
    54    29    30 1   
    55    29    54 1   
    56    29    55 1   
    57    30    31 1   
    58    30    56 1   
    59    30    57 1   
    60    31    32 1   
    61    31    58 1   
    62    32    33 1   
    63    32    59 1   
    64    32    60 1   
    65    33    61 1   
    66    33    62 1   
@<TRIPOS>SUBSTRUCTURE
     1 LQQ         1 TEMP              0 ****  ****    0 ROOT
