@<TRIPOS>MOLECULE
LQT
   47    47     1     0     0
SMALL
No Charge or Current Charge


@<TRIPOS>ATOM
      1 N01          7.1230     0.5830     1.7260 nt         1 LQT      -0.600000
      2 C02          5.9390    -0.0390     1.5380 c          1 LQT       0.615700
      3 C03          5.1470     0.2890     0.2900 ca         1 LQT      -0.115600
      4 C04          5.5950     1.2150    -0.6820 ca         1 LQT      -0.145000
      5 C05          4.8040     1.4680    -1.8160 ca         1 LQT       0.333900
      6 N06          3.6160     0.8650    -2.0380 nb         1 LQT      -0.625000
      7 C07          3.1710    -0.0230    -1.1150 ca         1 LQT       0.336300
      8 C08          1.8160    -0.7010    -1.3850 c3         1 LQT       0.110500
      9 N09          0.6840    -0.1190    -0.6090 n7         1 LQT      -0.828400
     10 C10         -0.6580    -0.7390    -0.8680 c3         1 LQT       0.080800
     11 C11         -1.8370    -0.2110     0.0270 c          1 LQT       0.599100
     12 N12         -3.1290    -0.7790    -0.1370 n          1 LQT      -0.419800
     13 C13         -3.4220    -1.8130    -1.1600 c3         1 LQT       0.104000
     14 C14         -3.3270    -3.2450    -0.6060 c3         1 LQT      -0.115100
     15 C15         -4.2650    -0.3390     0.7150 c3         1 LQT       0.101000
     16 C16         -5.1210     0.7760     0.0630 c3         1 LQT       0.143800
     17 N17         -6.2350     1.2980     0.9010 n3         1 LQT      -0.711600
     18 C18         -6.8550     2.5060     0.3130 c3         1 LQT       0.150600
     19 C19         -7.2490     0.2740     1.2520 c3         1 LQT       0.150600
     20 O20         -1.6500     0.6640     0.8690 o          1 LQT      -0.583100
     21 C21          3.9030    -0.3340     0.0490 ca         1 LQT      -0.111000
     22 O22          5.5500    -0.8400     2.3730 o          1 LQT      -0.597100
     23 HN01         7.4620     1.2480     1.0490 hn         1 LQT       0.317000
     24 HN0A         7.6620     0.3740     2.5530 hn         1 LQT       0.317000
     25 H04          6.5380     1.7420    -0.5800 ha         1 LQT       0.120000
     26 H05          5.1350     2.1770    -2.5740 h4         1 LQT       0.024100
     27 H08          1.6010    -0.6350    -2.4610 h1         1 LQT       0.042200
     28 H08A         1.9190    -1.7690    -1.1510 h1         1 LQT       0.042200
     29 HN09         0.8900    -0.1950     0.3970 hn         1 LQT       0.427000
     30 H10         -0.9420    -0.5710    -1.9150 h1         1 LQT       0.044700
     31 H10A        -0.6050    -1.8240    -0.7130 h1         1 LQT       0.044700
     32 H13         -4.4420    -1.6550    -1.5340 h1         1 LQT       0.047200
     33 H13A        -2.7570    -1.7080    -2.0240 h1         1 LQT       0.047200
     34 H14         -3.5590    -3.9730    -1.3930 hc         1 LQT       0.042033
     35 H14A        -2.3170    -3.4530    -0.2330 hc         1 LQT       0.042033
     36 H14B        -4.0370    -3.3930     0.2170 hc         1 LQT       0.042033
     37 H15         -4.9010    -1.2090     0.9170 h1         1 LQT       0.060700
     38 H15A        -3.8920     0.0160     1.6840 h1         1 LQT       0.060700
     39 H16         -4.4410     1.6020    -0.1860 h1         1 LQT       0.039700
     40 H16A        -5.5190     0.3970    -0.8890 h1         1 LQT       0.039700
     41 H18         -7.3350     2.2730    -0.6470 h1         1 LQT       0.029867
     42 H18A        -7.6160     2.9200     0.9880 h1         1 LQT       0.029867
     43 H18B        -6.1000     3.2850     0.1400 h1         1 LQT       0.029867
     44 H19         -6.8020    -0.5490     1.8250 h1         1 LQT       0.029867
     45 H19A        -8.0430     0.7120     1.8720 h1         1 LQT       0.029867
     46 H19B        -7.7120    -0.1450     0.3480 h1         1 LQT       0.029867
     47 H21          3.5000    -1.0560     0.7540 ha         1 LQT       0.142000
@<TRIPOS>BOND
     1     1     2 1   
     2     1    23 1   
     3     1    24 1   
     4     2     3 1   
     5     2    22 2   
     6     3     4 ar  
     7     3    21 ar  
     8     4     5 ar  
     9     4    25 1   
    10     5     6 ar  
    11     5    26 1   
    12     6     7 ar  
    13     7     8 1   
    14     7    21 ar  
    15     8     9 1   
    16     8    27 1   
    17     8    28 1   
    18     9    10 1   
    19     9    29 1   
    20    10    11 1   
    21    10    30 1   
    22    10    31 1   
    23    11    12 1   
    24    11    20 2   
    25    12    13 1   
    26    12    15 1   
    27    13    14 1   
    28    13    32 1   
    29    13    33 1   
    30    14    34 1   
    31    14    35 1   
    32    14    36 1   
    33    15    16 1   
    34    15    37 1   
    35    15    38 1   
    36    16    17 1   
    37    16    39 1   
    38    16    40 1   
    39    17    18 1   
    40    17    19 1   
    41    18    41 1   
    42    18    42 1   
    43    18    43 1   
    44    19    44 1   
    45    19    45 1   
    46    19    46 1   
    47    21    47 1   
@<TRIPOS>SUBSTRUCTURE
     1 LQT         1 TEMP              0 ****  ****    0 ROOT
