@<TRIPOS>MOLECULE
LQT
   47    47     1     0     0
SMALL
bcc


@<TRIPOS>ATOM
      1 N01          7.0850     0.4000     1.3840 nt         1 LQT      -0.667000
      2 C02          6.2310    -0.4380     0.7850 c          1 LQT       0.682700
      3 C03          5.1030     0.2030     0.0290 ca         1 LQT      -0.115600
      4 C04          5.1670     1.4880    -0.4910 ca         1 LQT      -0.228300
      5 C05          4.0770     1.9640    -1.2080 ca         1 LQT       0.399200
      6 N06          2.9740     1.2630    -1.4160 nb         1 LQT      -0.625000
      7 C07          2.9050     0.0290    -0.9190 ca         1 LQT       0.401600
      8 C08          1.6350    -0.7370    -1.1610 c3         1 LQT       0.110500
      9 N09          0.5210    -0.1070    -0.4790 n7         1 LQT      -0.773200
     10 C10         -0.7110    -0.8230    -0.7040 c3         1 LQT       0.080800
     11 C11         -1.8540    -0.2070     0.0890 c          1 LQT       0.666100
     12 N12         -3.0600    -0.8020    -0.0200 n          1 LQT      -0.486800
     13 C13         -3.3220    -1.9730    -0.8440 c3         1 LQT       0.104000
     14 C14         -3.2280    -3.2800    -0.0710 c3         1 LQT      -0.115100
     15 C15         -4.1860    -0.2810     0.7350 c3         1 LQT       0.101000
     16 C16         -4.9200     0.8120    -0.0370 c3         1 LQT       0.143800
     17 N17         -6.0880     1.3010     0.6680 n3         1 LQT      -0.711600
     18 C18         -6.5310     2.5710     0.1330 c3         1 LQT       0.150600
     19 C19         -7.1740     0.3420     0.6710 c3         1 LQT       0.150600
     20 O20         -1.6700     0.7720     0.8000 o          1 LQT      -0.583100
     21 C21          3.9500    -0.5370    -0.2010 ca         1 LQT      -0.194300
     22 O22          6.3370    -1.6540     0.8260 o          1 LQT      -0.597100
     23 HN01         6.9220     1.3900     1.4460 hn         1 LQT       0.317000
     24 HN0A         7.8570     0.0310     1.9160 hn         1 LQT       0.317000
     25 H04          6.0400     2.1180    -0.3800 ha         1 LQT       0.138000
     26 H05          4.1100     2.9590    -1.6370 h4         1 LQT       0.024100
     27 H08          1.4250    -0.7400    -2.2350 h1         1 LQT       0.042200
     28 H08A         1.7820    -1.7870    -0.8690 h1         1 LQT       0.042200
     29 HN09         0.7130    -0.0690     0.5140 hn         1 LQT       0.371800
     30 H10         -0.9480    -0.7780    -1.7720 h1         1 LQT       0.044700
     31 H10A        -0.6390    -1.8950    -0.4600 h1         1 LQT       0.044700
     32 H13         -4.3240    -1.8620    -1.2630 h1         1 LQT       0.047200
     33 H13A        -2.6500    -1.9910    -1.7000 h1         1 LQT       0.047200
     34 H14         -3.4690    -4.1190    -0.7250 hc         1 LQT       0.042033
     35 H14A        -2.2240    -3.4390     0.3210 hc         1 LQT       0.042033
     36 H14B        -3.9260    -3.3020     0.7670 hc         1 LQT       0.042033
     37 H15         -4.8480    -1.1220     0.9500 h1         1 LQT       0.060700
     38 H15A        -3.8490     0.1080     1.6940 h1         1 LQT       0.060700
     39 H16         -4.2280     1.6470    -0.1710 h1         1 LQT       0.039700
     40 H16A        -5.1720     0.4460    -1.0480 h1         1 LQT       0.039700
     41 H18         -6.8510     2.5140    -0.9190 h1         1 LQT       0.029867
     42 H18A        -7.3750     2.9450     0.7150 h1         1 LQT       0.029867
     43 H18B        -5.7280     3.3070     0.1980 h1         1 LQT       0.029867
     44 H19         -6.8840    -0.5820     1.1710 h1         1 LQT       0.029867
     45 H19A        -8.0250     0.7490     1.2200 h1         1 LQT       0.029867
     46 H19B        -7.5210     0.0810    -0.3410 h1         1 LQT       0.029867
     47 H21          3.8560    -1.5450     0.1800 ha         1 LQT       0.160000
@<TRIPOS>BOND
     1     1     2 1   
     2     1    23 1   
     3     1    24 1   
     4     2     3 1   
     5     2    22 2   
     6     3     4 ar  
     7     3    21 ar  
     8     4     5 ar  
     9     4    25 1   
    10     5     6 ar  
    11     5    26 1   
    12     6     7 ar  
    13     7     8 1   
    14     7    21 ar  
    15     8     9 1   
    16     8    27 1   
    17     8    28 1   
    18     9    10 1   
    19     9    29 1   
    20    10    11 1   
    21    10    30 1   
    22    10    31 1   
    23    11    12 1   
    24    11    20 2   
    25    12    13 1   
    26    12    15 1   
    27    13    14 1   
    28    13    32 1   
    29    13    33 1   
    30    14    34 1   
    31    14    35 1   
    32    14    36 1   
    33    15    16 1   
    34    15    37 1   
    35    15    38 1   
    36    16    17 1   
    37    16    39 1   
    38    16    40 1   
    39    17    18 1   
    40    17    19 1   
    41    18    41 1   
    42    18    42 1   
    43    18    43 1   
    44    19    44 1   
    45    19    45 1   
    46    19    46 1   
    47    21    47 1   
@<TRIPOS>SUBSTRUCTURE
     1 LQT         1 TEMP              0 ****  ****    0 ROOT
