@<TRIPOS>MOLECULE
LQU
   37    39     1     0     0
SMALL
No Charge or Current Charge


@<TRIPOS>ATOM
      1 N1          15.3090    -2.8360    21.8720 n1         1 LQU      -0.448000
      2 C4          10.6960    -1.4180    22.5760 ca         1 LQU      -0.084300
      3 C5          10.7780    -0.0630    22.9500 ca         1 LQU      -0.088000
      4 C6          12.0280     0.5720    23.0450 ca         1 LQU      -0.113000
      5 C7          13.2060    -0.1430    22.7660 ca         1 LQU      -0.071000
      6 C8          13.1350    -1.4980    22.3920 ca         1 LQU      -0.016000
      7 C10         11.8800    -2.1320    22.2970 ca         1 LQU      -0.062000
      8 C13          9.7510    -4.5460    25.4340 ca         1 LQU      -0.108000
      9 C15          8.5100    -5.6890    23.6850 ca         1 LQU      -0.103000
     10 C17          7.9020    -4.5680    21.4920 c6         1 LQU       0.132300
     11 N            7.7500    -3.2170    20.8990 n          1 LQU      -0.408800
     12 C1           6.5140    -2.7390    20.4030 c          1 LQU       0.610100
     13 C11          9.2500    -3.3850    23.3410 ca         1 LQU      -0.075300
     14 C2           8.9890    -2.4100    20.9960 c6         1 LQU       0.104000
     15 C16          8.5760    -4.5410    22.8720 ca         1 LQU      -0.094300
     16 C9          14.3370    -2.2340    22.1090 cg         1 LQU       0.321000
     17 C12          9.8220    -3.3960    24.6310 ca         1 LQU      -0.100000
     18 C14          9.0980    -5.6940    24.9600 ca         1 LQU      -0.102000
     19 C            6.4270    -1.3100    19.8630 c3         1 LQU      -0.177100
     20 O            5.5210    -3.4550    20.3940 o          1 LQU      -0.594100
     21 C3           9.3320    -2.1140    22.4740 c6         1 LQU       0.004900
     22 H1           9.8750     0.5020    23.1690 ha         1 LQU       0.116000
     23 H2          12.0850     1.6190    23.3350 ha         1 LQU       0.122000
     24 H3          14.1700     0.3560    22.8430 ha         1 LQU       0.128000
     25 H4          11.8250    -3.1810    22.0120 ha         1 LQU       0.133000
     26 H5          10.1990    -4.5460    26.4250 ha         1 LQU       0.116000
     27 H6           7.9990    -6.5810    23.3280 ha         1 LQU       0.116000
     28 H7           6.9240    -5.0590    21.5910 h1         1 LQU       0.072700
     29 H8           8.5050    -5.1890    20.8130 h1         1 LQU       0.072700
     30 H9           9.8100    -2.9810    20.5400 h1         1 LQU       0.058200
     31 H10          8.9180    -1.4670    20.4380 h1         1 LQU       0.058200
     32 H11         10.3250    -2.5120    25.0160 ha         1 LQU       0.116000
     33 H12          9.0420    -6.5850    25.5820 ha         1 LQU       0.116000
     34 H13          5.4160    -1.0510    19.5280 hc         1 LQU       0.060700
     35 H14          6.7860    -0.6110    20.6260 hc         1 LQU       0.060700
     36 H15          7.1540    -1.1870    19.0530 hc         1 LQU       0.060700
     37 H16          8.5600    -1.4280    22.8510 hc         1 LQU       0.067700
@<TRIPOS>BOND
     1     1    16 3   
     2     2     3 ar  
     3     2     7 ar  
     4     2    21 1   
     5     3     4 ar  
     6     3    22 1   
     7     4     5 ar  
     8     4    23 1   
     9     5     6 ar  
    10     5    24 1   
    11     6     7 ar  
    12     6    16 1   
    13     7    25 1   
    14     8    17 ar  
    15     8    18 ar  
    16     8    26 1   
    17     9    15 ar  
    18     9    18 ar  
    19     9    27 1   
    20    10    11 1   
    21    10    15 1   
    22    10    28 1   
    23    10    29 1   
    24    11    12 1   
    25    11    14 1   
    26    12    19 1   
    27    12    20 2   
    28    13    15 ar  
    29    13    17 ar  
    30    13    21 1   
    31    14    21 1   
    32    14    30 1   
    33    14    31 1   
    34    17    32 1   
    35    18    33 1   
    36    19    34 1   
    37    19    35 1   
    38    19    36 1   
    39    21    37 1   
@<TRIPOS>SUBSTRUCTURE
     1 LQU         1 TEMP              0 ****  ****    0 ROOT
