@<TRIPOS>MOLECULE
LQU
   37    39     1     0     0
SMALL
abcg2


@<TRIPOS>ATOM
      1 N1          15.2390    -2.8860    22.0640 n1         1 LQU      -0.448000
      2 C4          10.6770    -1.4390    22.5610 ca         1 LQU      -0.084300
      3 C5          10.7660    -0.0720    22.8050 ca         1 LQU      -0.088000
      4 C6          11.9980     0.5690    22.8640 ca         1 LQU      -0.113000
      5 C7          13.1650    -0.1470    22.6770 ca         1 LQU      -0.071000
      6 C8          13.0830    -1.5180    22.4290 ca         1 LQU      -0.016000
      7 C10         11.8500    -2.1610    22.3720 ca         1 LQU      -0.062000
      8 C13          9.6090    -4.5080    25.3930 ca         1 LQU      -0.108000
      9 C15          8.5220    -5.6570    23.5930 ca         1 LQU      -0.103000
     10 C17          8.0410    -4.5670    21.3940 c6         1 LQU       0.132300
     11 N            7.8520    -3.2370    20.8630 n          1 LQU      -0.408800
     12 C1           6.6140    -2.7670    20.5650 c          1 LQU       0.610100
     13 C11          9.2230    -3.3720    23.2900 ca         1 LQU      -0.075300
     14 C2           9.0410    -2.4270    20.9740 c6         1 LQU       0.104000
     15 C16          8.6110    -4.5220    22.7910 ca         1 LQU      -0.094300
     16 C9          14.2770    -2.2740    22.2290 cg         1 LQU       0.321000
     17 C12          9.7080    -3.3790    24.5980 ca         1 LQU      -0.100000
     18 C14          9.0170    -5.6580    24.8860 ca         1 LQU      -0.102000
     19 C            6.5140    -1.3160    20.1600 c3         1 LQU      -0.177100
     20 O            5.6250    -3.4840    20.6030 o          1 LQU      -0.594100
     21 C3           9.3340    -2.1160    22.4470 c6         1 LQU       0.004900
     22 H1           9.8580     0.5000    22.9520 ha         1 LQU       0.116000
     23 H2          12.0440     1.6320    23.0580 ha         1 LQU       0.122000
     24 H3          14.1280     0.3440    22.7220 ha         1 LQU       0.128000
     25 H4          11.8100    -3.2280    22.1860 ha         1 LQU       0.133000
     26 H5           9.9920    -4.4910    26.4050 ha         1 LQU       0.116000
     27 H6           8.0470    -6.5480    23.1980 ha         1 LQU       0.116000
     28 H7           7.0910    -5.0970    21.3940 h1         1 LQU       0.072700
     29 H8           8.7160    -5.1250    20.7360 h1         1 LQU       0.072700
     30 H9           9.8750    -2.9850    20.5390 h1         1 LQU       0.058200
     31 H10          8.9530    -1.5040    20.4070 h1         1 LQU       0.058200
     32 H11         10.1750    -2.4870    24.9980 ha         1 LQU       0.116000
     33 H12          8.9350    -6.5470    25.4970 ha         1 LQU       0.116000
     34 H13          5.4710    -1.0730    19.9750 hc         1 LQU       0.060700
     35 H14          6.8920    -0.6490    20.9350 hc         1 LQU       0.060700
     36 H15          7.0790    -1.1130    19.2490 hc         1 LQU       0.060700
     37 H16          8.5720    -1.4070    22.7900 hc         1 LQU       0.067700
@<TRIPOS>BOND
     1     1    16 3   
     2     2     3 ar  
     3     2     7 ar  
     4     2    21 1   
     5     3     4 ar  
     6     3    22 1   
     7     4     5 ar  
     8     4    23 1   
     9     5     6 ar  
    10     5    24 1   
    11     6     7 ar  
    12     6    16 1   
    13     7    25 1   
    14     8    17 ar  
    15     8    18 ar  
    16     8    26 1   
    17     9    15 ar  
    18     9    18 ar  
    19     9    27 1   
    20    10    11 1   
    21    10    15 1   
    22    10    28 1   
    23    10    29 1   
    24    11    12 1   
    25    11    14 1   
    26    12    19 1   
    27    12    20 2   
    28    13    15 ar  
    29    13    17 ar  
    30    13    21 1   
    31    14    21 1   
    32    14    30 1   
    33    14    31 1   
    34    17    32 1   
    35    18    33 1   
    36    19    34 1   
    37    19    35 1   
    38    19    36 1   
    39    21    37 1   
@<TRIPOS>SUBSTRUCTURE
     1 LQU         1 TEMP              0 ****  ****    0 ROOT
