@<TRIPOS>MOLECULE
LQV
   29    30     1     0     0
SMALL
bcc


@<TRIPOS>ATOM
      1 N1          48.0410    28.8220   115.8560 ns         1 LQV      -0.560400
      2 C4          49.3460    27.2520   114.4650 ca         1 LQV      -0.255300
      3 C5          48.2290    28.0540   114.7080 ca         1 LQV       0.541200
      4 C6          48.8330    28.9470   116.9540 c          1 LQV       0.661100
      5 C7          48.3290    30.0020   117.9320 c5         1 LQV       0.064100
      6 C8          48.7930    31.4060   117.4840 c5         1 LQV      -0.106400
      7 C10         49.7800    30.8060   119.5380 c5         1 LQV       0.128400
      8 C2          48.3540    26.6520   112.3460 ca         1 LQV      -0.223600
      9 C3          49.3900    26.5560   113.2720 ca         1 LQV      -0.074000
     10 O1          49.8610    28.3280   117.1370 o          1 LQV      -0.557100
     11 C9          49.2720    32.0270   118.7920 c5         1 LQV      -0.115400
     12 O2          48.8590    29.7760   119.2110 os         1 LQV      -0.381600
     13 N2          47.2330    28.1580   113.8410 nb         1 LQV      -0.735000
     14 C11         47.2980    27.4790   112.7030 ca         1 LQV       0.436200
     15 H1          47.1820    29.3550   115.8370 hn         1 LQV       0.330500
     16 H2          50.1500    27.1710   115.1770 ha         1 LQV       0.174000
     17 H3          47.2350    29.9570   117.9920 h1         1 LQV       0.071700
     18 H4          47.9900    31.9640   117.0060 hc         1 LQV       0.061200
     19 H5          49.6200    31.3420   116.7730 hc         1 LQV       0.061200
     20 H6          50.7940    30.5440   119.2140 h1         1 LQV       0.057200
     21 H7          49.7910    30.9280   120.6220 h1         1 LQV       0.057200
     22 H8          49.2110    26.2370   110.4200 hc         1 LQV       0.043033
     23 H9          48.4880    24.8390   111.1980 hc         1 LQV       0.043033
     24 H10         47.4590    26.0750   110.4790 hc         1 LQV       0.043033
     25 H11         50.2470    25.9280   113.0600 ha         1 LQV       0.137000
     26 H12         50.0440    32.7820   118.6430 hc         1 LQV       0.059200
     27 H13         48.4440    32.4900   119.3320 hc         1 LQV       0.059200
     28 H14         46.4550    27.5990   112.0300 h4         1 LQV       0.017100
     29 C1          48.3760    25.9130   111.0430 c3         1 LQV      -0.035800
@<TRIPOS>BOND
     1     1     3 1   
     2     1     4 1   
     3     1    15 1   
     4     2     3 ar  
     5     2     9 ar  
     6     2    16 1   
     7     3    13 ar  
     8     4     5 1   
     9     4    10 2   
    10     5     6 1   
    11     5    12 1   
    12     5    17 1   
    13     6    11 1   
    14     6    18 1   
    15     6    19 1   
    16     7    11 1   
    17     7    12 1   
    18     7    20 1   
    19     7    21 1   
    20     8     9 ar  
    21     8    14 ar  
    22     8    29 1   
    23     9    25 1   
    24    11    26 1   
    25    11    27 1   
    26    13    14 ar  
    27    14    28 1   
    28    22    29 1   
    29    23    29 1   
    30    24    29 1   
@<TRIPOS>SUBSTRUCTURE
     1 LQV         1 TEMP              0 ****  ****    0 ROOT
