@<TRIPOS>MOLECULE
LQV
   29    30     1     0     0
SMALL
No Charge or Current Charge


@<TRIPOS>ATOM
      1 N1          48.1810    28.8890   115.8100 ns         1 LQV      -0.326900
      2 C4          49.4430    27.2560   114.4000 ca         1 LQV      -0.172000
      3 C5          48.3380    28.0830   114.6770 ca         1 LQV       0.475900
      4 C6          48.9050    28.9540   116.9810 c          1 LQV       0.594100
      5 C7          48.2550    30.0420   117.9030 c5         1 LQV       0.087300
      6 C8          48.7890    31.4660   117.5100 c5         1 LQV      -0.106400
      7 C10         49.7160    30.7670   119.5840 c5         1 LQV       0.151600
      8 C2          48.3480    26.6230   112.3460 ca         1 LQV      -0.158300
      9 C3          49.4500    26.5090   113.2110 ca         1 LQV      -0.056000
     10 O1          49.8500    28.2210   117.2530 o          1 LQV      -0.557100
     11 C9          49.2570    32.0530   118.8700 c5         1 LQV      -0.115400
     12 O2          48.6320    29.8660   119.2990 os         1 LQV      -0.428000
     13 N2          47.2810    28.2060   113.8530 nb         1 LQV      -0.735000
     14 C11         47.2910    27.4840   112.7080 ca         1 LQV       0.370900
     15 H1          47.3990    29.5260   115.7460 hn         1 LQV       0.164000
     16 H2          50.2870    27.1910   115.0770 ha         1 LQV       0.156000
     17 H3          47.1620    29.9740   117.8240 h1         1 LQV       0.071700
     18 H4          48.0170    32.0820   117.0350 hc         1 LQV       0.061200
     19 H5          49.6260    31.4040   116.8030 hc         1 LQV       0.061200
     20 H6          50.6480    30.3670   119.1620 h1         1 LQV       0.057200
     21 H7          49.8340    30.8920   120.6690 h1         1 LQV       0.057200
     22 H8          48.8940    26.3410   110.2640 hc         1 LQV       0.043033
     23 H9          48.7110    24.8300   111.1710 hc         1 LQV       0.043033
     24 H10         47.2780    25.7370   110.6680 hc         1 LQV       0.043033
     25 H11         50.2900    25.8620   112.9670 ha         1 LQV       0.119000
     26 H12         50.0610    32.7890   118.7630 hc         1 LQV       0.059200
     27 H13         48.4330    32.5330   119.4110 hc         1 LQV       0.059200
     28 H14         46.4230    27.6020   112.0590 h4         1 LQV       0.017100
     29 C1          48.3040    25.8400   111.0410 c3         1 LQV      -0.035800
@<TRIPOS>BOND
     1     1     3 1   
     2     1     4 1   
     3     1    15 1   
     4     2     3 ar  
     5     2     9 ar  
     6     2    16 1   
     7     3    13 ar  
     8     4     5 1   
     9     4    10 2   
    10     5     6 1   
    11     5    12 1   
    12     5    17 1   
    13     6    11 1   
    14     6    18 1   
    15     6    19 1   
    16     7    11 1   
    17     7    12 1   
    18     7    20 1   
    19     7    21 1   
    20     8     9 ar  
    21     8    14 ar  
    22     8    29 1   
    23     9    25 1   
    24    11    26 1   
    25    11    27 1   
    26    13    14 ar  
    27    14    28 1   
    28    22    29 1   
    29    23    29 1   
    30    24    29 1   
@<TRIPOS>SUBSTRUCTURE
     1 LQV         1 TEMP              0 ****  ****    0 ROOT
