@<TRIPOS>MOLECULE
LQX
   61    65     1     0     0
SMALL
No Charge or Current Charge


@<TRIPOS>ATOM
      1 N4           6.8280     0.7150    42.7070 n7         1 LQX      -0.858300
      2 N5          11.5940    -5.2510    38.7290 na         1 LQX       0.135800
      3 C1           9.2000    -7.8830    39.1400 c3         1 LQX      -0.119400
      4 C2          10.0210    -6.6620    38.8470 cc         1 LQX       0.261300
      5 C3           9.5130    -5.5610    38.1460 cc         1 LQX      -0.217000
      6 C4          10.5140    -4.6430    38.0670 cd         1 LQX      -0.178300
      7 N1          10.8700    -2.1780    38.3810 n          1 LQX      -0.312000
      8 C6          12.1140    -1.5340    38.2200 c          1 LQX       0.622000
      9 O1          12.7910    -1.7020    37.2150 o          1 LQX      -0.547000
     10 N2          12.5730    -0.7230    39.2640 n          1 LQX      -0.377400
     11 C7          13.9490    -0.1750    39.1550 c3         1 LQX       0.183300
     12 C8          14.9550    -1.2490    39.4750 cc         1 LQX      -0.272300
     13 C9          15.7570    -1.9290    38.5870 cd         1 LQX       0.302900
     14 N3          16.5670    -2.9010    39.1590 nd         1 LQX      -0.652000
     15 C10         16.3660    -2.9370    40.4690 cc         1 LQX       0.447700
     16 C11         17.0780    -3.8920    41.3780 c3         1 LQX      -0.132400
     17 S1          15.1900    -1.8160    41.1040 ss         1 LQX      -0.031400
     18 C12         11.8400    -0.4560    40.4240 c          1 LQX       0.590600
     19 O2          12.2780     0.2480    41.3240 o          1 LQX      -0.513000
     20 C13         10.4830    -1.0660    40.5230 ca         1 LQX      -0.241600
     21 C14          9.6580    -0.7550    41.6250 ca         1 LQX       0.089000
     22 C15          8.3550    -1.2720    41.6980 ca         1 LQX      -0.354500
     23 S2           7.3150    -0.8420    43.0940 sy         1 LQX       1.194600
     24 O3           8.1700    -0.6860    44.2730 o          1 LQX      -0.539000
     25 O4           6.1040    -1.6650    43.1040 o          1 LQX      -0.539000
     26 C16          6.3730     1.0660    41.3750 cx         1 LQX       0.130200
     27 C17          5.1110     0.3580    40.8870 c3         1 LQX      -0.084100
     28 C18          7.4150     1.5200    40.3780 cx         1 LQX      -0.106900
     29 C19          6.5180     2.5330    41.0420 cx         1 LQX      -0.106900
     30 C20          7.8730    -2.1010    40.6730 ca         1 LQX       0.036000
     31 C21          8.7010    -2.4110    39.5840 ca         1 LQX      -0.179000
     32 C22         10.0320    -1.9400    39.5230 ca         1 LQX       0.169600
     33 N6          11.2760    -6.5140    39.2160 nd         1 LQX      -0.509800
     34 H1           6.0750     0.8420    43.3800 hn         1 LQX       0.485000
     35 H2           9.7780    -8.6280    39.7000 hc         1 LQX       0.049367
     36 H3           8.3170    -7.6220    39.7350 hc         1 LQX       0.049367
     37 H4           8.8570    -8.3510    38.2090 hc         1 LQX       0.049367
     38 H5           8.5050    -5.4790    37.7540 ha         1 LQX       0.140000
     39 H6          11.2060    -3.2970    36.5750 h1         1 LQX       0.088700
     40 H7           9.5300    -3.0620    37.0010 h1         1 LQX       0.088700
     41 H8          14.1180     0.2030    38.1370 h1         1 LQX       0.089700
     42 H9          14.0950     0.6790    39.8280 h1         1 LQX       0.089700
     43 H10         15.7890    -1.7690    37.5160 h4         1 LQX       0.050100
     44 H11         17.9920    -4.2760    40.9100 hc         1 LQX       0.062033
     45 H12         17.3590    -3.3990    42.3150 hc         1 LQX       0.062033
     46 H13         16.4330    -4.7440    41.6190 hc         1 LQX       0.062033
     47 H14         10.0180    -0.0880    42.4090 ha         1 LQX       0.167000
     48 H15          5.2970    -0.6990    40.6740 hc         1 LQX       0.046033
     49 H16          4.3100     0.4200    41.6330 hc         1 LQX       0.046033
     50 H17          4.7340     0.8090    39.9610 hc         1 LQX       0.046033
     51 H18          8.4590     1.5180    40.6760 hc         1 LQX       0.086950
     52 H19          7.2440     1.2950    39.3290 hc         1 LQX       0.086950
     53 H20          5.7490     3.0020    40.4340 hc         1 LQX       0.086950
     54 H21          6.9620     3.1860    41.7890 hc         1 LQX       0.086950
     55 H22          6.8620    -2.5020    40.7060 ha         1 LQX       0.131000
     56 H23          8.2860    -3.0350    38.8010 ha         1 LQX       0.136000
     57 H24         13.6200    -5.4780    39.2890 h1         1 LQX       0.064033
     58 H25         13.3220    -4.2980    37.9840 h1         1 LQX       0.064033
     59 H26         12.8960    -3.8920    39.6770 h1         1 LQX       0.064033
     60 C5          10.5190    -3.2700    37.4300 c3         1 LQX       0.167300
     61 C23         12.9410    -4.6950    38.9320 c3         1 LQX       0.063900
@<TRIPOS>BOND
     1     1    23 1   
     2     1    26 1   
     3     1    34 1   
     4     2     6 1   
     5     2    33 1   
     6     2    61 1   
     7     3     4 1   
     8     3    35 1   
     9     3    36 1   
    10     3    37 1   
    11     4     5 1   
    12     4    33 2   
    13     5     6 2   
    14     5    38 1   
    15     6    60 1   
    16     7     8 1   
    17     7    32 1   
    18     7    60 1   
    19     8     9 2   
    20     8    10 1   
    21    10    11 1   
    22    10    18 1   
    23    11    12 1   
    24    11    41 1   
    25    11    42 1   
    26    12    13 2   
    27    12    17 1   
    28    13    14 1   
    29    13    43 1   
    30    14    15 2   
    31    15    16 1   
    32    15    17 1   
    33    16    44 1   
    34    16    45 1   
    35    16    46 1   
    36    18    19 2   
    37    18    20 1   
    38    20    21 ar  
    39    20    32 ar  
    40    21    22 ar  
    41    21    47 1   
    42    22    23 1   
    43    22    30 ar  
    44    23    24 2   
    45    23    25 2   
    46    26    27 1   
    47    26    28 1   
    48    26    29 1   
    49    27    48 1   
    50    27    49 1   
    51    27    50 1   
    52    28    29 1   
    53    28    51 1   
    54    28    52 1   
    55    29    53 1   
    56    29    54 1   
    57    30    31 ar  
    58    30    55 1   
    59    31    32 ar  
    60    31    56 1   
    61    39    60 1   
    62    40    60 1   
    63    57    61 1   
    64    58    61 1   
    65    59    61 1   
@<TRIPOS>SUBSTRUCTURE
     1 LQX         1 TEMP              0 ****  ****    0 ROOT
