@<TRIPOS>MOLECULE
LQX
   61    65     1     0     0
SMALL
abcg2


@<TRIPOS>ATOM
      1 N4           6.2630     0.2230    42.3120 n7         1 LQX      -0.858300
      2 N5          11.4350    -5.4010    38.7760 na         1 LQX       0.135800
      3 C1           9.2910    -8.1930    39.4130 c3         1 LQX      -0.119400
      4 C2           9.9180    -6.9030    38.9990 cc         1 LQX       0.261300
      5 C3           9.3440    -5.8410    38.2720 cc         1 LQX      -0.217000
      6 C4          10.3420    -4.8950    38.1490 cd         1 LQX      -0.178300
      7 N1          10.7250    -2.4500    38.3140 n          1 LQX      -0.312000
      8 C6          11.9160    -1.8230    37.9910 c          1 LQX       0.622000
      9 O1          12.5310    -2.0780    36.9710 o          1 LQX      -0.547000
     10 N2          12.4130    -0.9040    38.9110 n          1 LQX      -0.377400
     11 C7          13.7750    -0.3930    38.6580 c3         1 LQX       0.183300
     12 C8          14.8120    -1.3710    39.1030 cc         1 LQX      -0.272300
     13 C9          15.6160    -2.1460    38.3260 cd         1 LQX       0.302900
     14 N3          16.4510    -3.0120    38.9910 nd         1 LQX      -0.652000
     15 C10         16.2990    -2.9280    40.2830 cc         1 LQX       0.447700
     16 C11         17.0500    -3.7410    41.2820 c3         1 LQX      -0.132400
     17 S1          15.1090    -1.7520    40.7690 ss         1 LQX      -0.031400
     18 C12         11.7990    -0.5570    40.1060 c          1 LQX       0.590600
     19 O2          12.3510     0.1830    40.9070 o          1 LQX      -0.513000
     20 C13         10.4720    -1.1340    40.3140 ca         1 LQX      -0.241600
     21 C14          9.7210    -0.7350    41.4170 ca         1 LQX       0.089000
     22 C15          8.4700    -1.2770    41.6260 ca         1 LQX      -0.354500
     23 S2           7.4580    -0.6930    42.9570 sy         1 LQX       1.194600
     24 O3           8.2860     0.1480    43.7850 o          1 LQX      -0.539000
     25 O4           6.7850    -1.8290    43.5420 o          1 LQX      -0.539000
     26 C16          6.5010     1.4300    41.5350 cx         1 LQX       0.130200
     27 C17          6.8580     1.2300    40.0790 c3         1 LQX      -0.084100
     28 C18          7.0500     2.6110    42.2820 cx         1 LQX      -0.106900
     29 C19          5.5950     2.5790    41.8960 cx         1 LQX      -0.106900
     30 C20          7.9600    -2.2330    40.7430 ca         1 LQX       0.036000
     31 C21          8.6970    -2.6370    39.6510 ca         1 LQX      -0.179000
     32 C22          9.9660    -2.0830    39.4140 ca         1 LQX       0.169600
     33 N6          11.1850    -6.6210    39.3060 nd         1 LQX      -0.509800
     34 H1           5.5150    -0.3630    41.9530 hn         1 LQX       0.485000
     35 H2           9.9910    -8.7810    40.0070 hc         1 LQX       0.049367
     36 H3           8.3920    -8.0200    40.0080 hc         1 LQX       0.049367
     37 H4           8.9970    -8.7850    38.5430 hc         1 LQX       0.049367
     38 H5           8.3390    -5.7670    37.8900 ha         1 LQX       0.140000
     39 H6          10.9780    -3.5600    36.5980 h1         1 LQX       0.088700
     40 H7           9.3000    -3.3890    37.0810 h1         1 LQX       0.088700
     41 H8          13.8770    -0.2190    37.5920 h1         1 LQX       0.089700
     42 H9          13.8560     0.5520    39.1850 h1         1 LQX       0.089700
     43 H10         15.6220    -2.1190    37.2460 h4         1 LQX       0.050100
     44 H11         17.7480    -4.3930    40.7580 hc         1 LQX       0.062033
     45 H12         17.6090    -3.1030    41.9690 hc         1 LQX       0.062033
     46 H13         16.3720    -4.3550    41.8770 hc         1 LQX       0.062033
     47 H14         10.1260     0.0070    42.0890 ha         1 LQX       0.167000
     48 H15          7.8350     0.7610    39.9590 hc         1 LQX       0.046033
     49 H16          6.1120     0.6010    39.5870 hc         1 LQX       0.046033
     50 H17          6.8820     2.1930    39.5680 hc         1 LQX       0.046033
     51 H18          7.2980     2.4740    43.3230 hc         1 LQX       0.086950
     52 H19          7.7150     3.2630    41.7320 hc         1 LQX       0.086950
     53 H20          5.2590     3.2110    41.0850 hc         1 LQX       0.086950
     54 H21          4.8740     2.4100    42.6840 hc         1 LQX       0.086950
     55 H22          6.9760    -2.6550    40.9050 ha         1 LQX       0.131000
     56 H23          8.2800    -3.3730    38.9850 ha         1 LQX       0.136000
     57 H24         13.4330    -5.5750    39.2500 h1         1 LQX       0.064033
     58 H25         13.0760    -4.3230    38.0470 h1         1 LQX       0.064033
     59 H26         12.7060    -4.0410    39.7640 h1         1 LQX       0.064033
     60 C5          10.3070    -3.5720    37.4520 c3         1 LQX       0.167300
     61 C23         12.7380    -4.7900    38.9700 c3         1 LQX       0.063900
@<TRIPOS>BOND
     1     1    23 1   
     2     1    26 1   
     3     1    34 1   
     4     2     6 1   
     5     2    33 1   
     6     2    61 1   
     7     3     4 1   
     8     3    35 1   
     9     3    36 1   
    10     3    37 1   
    11     4     5 1   
    12     4    33 2   
    13     5     6 2   
    14     5    38 1   
    15     6    60 1   
    16     7     8 1   
    17     7    32 1   
    18     7    60 1   
    19     8     9 2   
    20     8    10 1   
    21    10    11 1   
    22    10    18 1   
    23    11    12 1   
    24    11    41 1   
    25    11    42 1   
    26    12    13 2   
    27    12    17 1   
    28    13    14 1   
    29    13    43 1   
    30    14    15 2   
    31    15    16 1   
    32    15    17 1   
    33    16    44 1   
    34    16    45 1   
    35    16    46 1   
    36    18    19 2   
    37    18    20 1   
    38    20    21 ar  
    39    20    32 ar  
    40    21    22 ar  
    41    21    47 1   
    42    22    23 1   
    43    22    30 ar  
    44    23    24 2   
    45    23    25 2   
    46    26    27 1   
    47    26    28 1   
    48    26    29 1   
    49    27    48 1   
    50    27    49 1   
    51    27    50 1   
    52    28    29 1   
    53    28    51 1   
    54    28    52 1   
    55    29    53 1   
    56    29    54 1   
    57    30    31 ar  
    58    30    55 1   
    59    31    32 ar  
    60    31    56 1   
    61    39    60 1   
    62    40    60 1   
    63    57    61 1   
    64    58    61 1   
    65    59    61 1   
@<TRIPOS>SUBSTRUCTURE
     1 LQX         1 TEMP              0 ****  ****    0 ROOT
