@<TRIPOS>MOLECULE
LQY
   75    79     1     0     0
SMALL
bcc


@<TRIPOS>ATOM
      1 C            1.9410     5.4820    -0.0400 c3         1 LQY       0.122700
      2 N            6.3640    -1.2260    -0.0990 ns         1 LQY      -0.563900
      3 O            1.9070     4.0790     0.1440 os         1 LQY      -0.307900
      4 C1           0.7230     3.4530     0.1280 ca         1 LQY       0.169100
      5 N1           9.3580    -2.7320    -1.4610 nt         1 LQY      -0.670000
      6 O1           5.9870    -1.2800     2.1170 o          1 LQY      -0.611100
      7 C2          -0.4970     4.1020    -0.0220 ca         1 LQY      -0.229000
      8 N2          -2.8510    -0.0430     0.2520 n2         1 LQY      -0.450300
      9 O2           7.5160    -1.8440    -2.4200 o          1 LQY      -0.612100
     10 C3          -1.6830     3.3810     0.0020 ca         1 LQY      -0.068000
     11 N3          -3.9780    -0.8040     0.1720 n          1 LQY      -0.245800
     12 O3          -6.2050    -1.0840     0.4510 o          1 LQY      -0.608500
     13 C4          -1.6880     2.0020     0.1780 ca         1 LQY      -0.159900
     14 C5          -0.4510     1.3630     0.3240 ca         1 LQY      -0.049000
     15 C6           0.7460     2.0540     0.2970 cp         1 LQY      -0.085000
     16 C7           2.0190     1.3190     0.4610 cp         1 LQY       0.000000
     17 C8           2.1990     0.4710     1.5530 ca         1 LQY      -0.121500
     18 C9           3.3730    -0.2480     1.7120 ca         1 LQY      -0.091500
     19 C10          4.3910    -0.1530     0.7680 ca         1 LQY      -0.148600
     20 C11          4.2160     0.6930    -0.3250 ca         1 LQY      -0.091500
     21 C12          3.0490     1.4230    -0.4740 ca         1 LQY      -0.121500
     22 C13          5.6450    -0.9330     0.9940 c          1 LQY       0.683700
     23 C14          7.6030    -1.9460    -0.0240 c3         1 LQY       0.017000
     24 C15          8.1510    -2.1630    -1.4250 c          1 LQY       0.660100
     25 C16         -2.9380     1.2280     0.1700 ce         1 LQY       0.401900
     26 C17         -3.7050    -2.2270    -0.0390 c3         1 LQY       0.137700
     27 C18         -3.0860    -2.8300     1.2240 c3         1 LQY      -0.079900
     28 C19         -3.0930    -4.3540     1.2780 c3         1 LQY      -0.070900
     29 C20         -2.4680    -5.0830     0.0880 c3         1 LQY      -0.072400
     30 C21         -3.3010    -4.9780    -1.1900 c3         1 LQY      -0.072400
     31 C22         -3.0680    -3.7220    -2.0350 c3         1 LQY      -0.070900
     32 C23         -2.8130    -2.4240    -1.2690 c3         1 LQY      -0.079900
     33 C24         -5.2310    -0.3500     0.4570 c          1 LQY       0.700500
     34 C25         -5.2880     1.1130     0.8350 c6         1 LQY      -0.141700
     35 C26         -6.6820     1.7080     0.7110 c6         1 LQY      -0.028200
     36 C27         -7.0240     2.0740    -0.7000 c2         1 LQY      -0.159200
     37 C28         -6.1260     2.1680    -1.6760 c2         1 LQY      -0.174200
     38 C29         -4.6610     1.9280    -1.4820 c6         1 LQY      -0.038200
     39 C30         -4.2730     1.8910     0.0050 c6         1 LQY      -0.129000
     40 H            2.9890     5.7680    -0.0180 h1         1 LQY       0.043700
     41 HA           1.5130     5.7760    -1.0010 h1         1 LQY       0.043700
     42 HB           1.4150     6.0100     0.7590 h1         1 LQY       0.043700
     43 HN           6.0080    -1.0410    -1.0240 hn         1 LQY       0.345500
     44 HN1          9.8070    -2.9250    -2.3420 hn         1 LQY       0.319500
     45 HN1A         9.8630    -2.9620    -0.6220 hn         1 LQY       0.319500
     46 H2          -0.5480     5.1740    -0.1510 ha         1 LQY       0.138000
     47 H3          -2.6050     3.9310    -0.1260 ha         1 LQY       0.132000
     48 H5          -0.4290     0.2870     0.4430 ha         1 LQY       0.157000
     49 H8           1.4190     0.3820     2.2990 ha         1 LQY       0.138500
     50 H9           3.4950    -0.8880     2.5750 ha         1 LQY       0.143000
     51 H11          4.9970     0.8200    -1.0650 ha         1 LQY       0.143000
     52 H12          2.9400     2.0690    -1.3340 ha         1 LQY       0.138500
     53 H14          8.3410    -1.4020     0.5730 h1         1 LQY       0.066200
     54 H14A         7.4710    -2.9220     0.4560 h1         1 LQY       0.066200
     55 H17         -4.6780    -2.6840    -0.2210 h1         1 LQY       0.084700
     56 H18         -2.0580    -2.4650     1.3140 hc         1 LQY       0.047700
     57 H18A        -3.6270    -2.4580     2.0990 hc         1 LQY       0.047700
     58 H19         -2.5800    -4.6570     2.1940 hc         1 LQY       0.037950
     59 H19A        -4.1270    -4.7000     1.3850 hc         1 LQY       0.037950
     60 H20         -1.4460    -4.7300    -0.0860 hc         1 LQY       0.037950
     61 H20A        -2.3760    -6.1380     0.3580 hc         1 LQY       0.037950
     62 H21         -3.1150    -5.8480    -1.8240 hc         1 LQY       0.037950
     63 H21A        -4.3580    -5.0450    -0.9150 hc         1 LQY       0.037950
     64 H22         -2.2140    -3.8850    -2.6970 hc         1 LQY       0.037950
     65 H22A        -3.9310    -3.5890    -2.6930 hc         1 LQY       0.037950
     66 H23         -2.9550    -1.5910    -1.9630 hc         1 LQY       0.047700
     67 H23A        -1.7670    -2.3730    -0.9560 hc         1 LQY       0.047700
     68 H25         -4.9770     1.1590     1.8880 hc         1 LQY       0.077700
     69 H26         -7.4250     1.0170     1.1110 hc         1 LQY       0.062700
     70 H26A        -6.7430     2.5990     1.3450 hc         1 LQY       0.062700
     71 H27         -8.0670     2.2780    -0.9150 ha         1 LQY       0.127000
     72 H28         -6.4490     2.4290    -2.6780 ha         1 LQY       0.126000
     73 H29         -4.3760     0.9950    -1.9820 hc         1 LQY       0.057200
     74 H29A        -4.0850     2.7100    -1.9840 hc         1 LQY       0.057200
     75 H30         -4.2500     2.9120     0.3860 hc         1 LQY       0.071700
@<TRIPOS>BOND
     1     1     3 1   
     2     1    40 1   
     3     1    41 1   
     4     1    42 1   
     5     2    22 1   
     6     2    23 1   
     7     2    43 1   
     8     3     4 1   
     9     4     7 ar  
    10     4    15 ar  
    11     5    24 1   
    12     5    44 1   
    13     5    45 1   
    14     6    22 2   
    15     7    10 ar  
    16     7    46 1   
    17     8    11 1   
    18     8    25 2   
    19     9    24 2   
    20    10    13 ar  
    21    10    47 1   
    22    11    26 1   
    23    11    33 1   
    24    12    33 2   
    25    13    14 ar  
    26    13    25 1   
    27    14    15 ar  
    28    14    48 1   
    29    15    16 1   
    30    16    17 ar  
    31    16    21 ar  
    32    17    18 ar  
    33    17    49 1   
    34    18    19 ar  
    35    18    50 1   
    36    19    20 ar  
    37    19    22 1   
    38    20    21 ar  
    39    20    51 1   
    40    21    52 1   
    41    23    24 1   
    42    23    53 1   
    43    23    54 1   
    44    25    39 1   
    45    26    27 1   
    46    26    32 1   
    47    26    55 1   
    48    27    28 1   
    49    27    56 1   
    50    27    57 1   
    51    28    29 1   
    52    28    58 1   
    53    28    59 1   
    54    29    30 1   
    55    29    60 1   
    56    29    61 1   
    57    30    31 1   
    58    30    62 1   
    59    30    63 1   
    60    31    32 1   
    61    31    64 1   
    62    31    65 1   
    63    32    66 1   
    64    32    67 1   
    65    33    34 1   
    66    34    35 1   
    67    34    39 1   
    68    34    68 1   
    69    35    36 1   
    70    35    69 1   
    71    35    70 1   
    72    36    37 2   
    73    36    71 1   
    74    37    38 1   
    75    37    72 1   
    76    38    39 1   
    77    38    73 1   
    78    38    74 1   
    79    39    75 1   
@<TRIPOS>SUBSTRUCTURE
     1 LQY         1 TEMP              0 ****  ****    0 ROOT
