@<TRIPOS>MOLECULE
LQY
   75    79     1     0     0
SMALL
No Charge or Current Charge


@<TRIPOS>ATOM
      1 C            2.1550     5.3380    -0.8580 c3         1 LQY       0.145900
      2 N            6.8040    -0.9970     0.1250 ns         1 LQY      -0.496900
      3 O            2.0550     3.9610    -0.4560 os         1 LQY      -0.331100
      4 C1           0.8400     3.3180    -0.3060 ca         1 LQY       0.169100
      5 N1          10.2050    -2.0360    -1.0190 nt         1 LQY      -0.603000
      6 O1           5.9630    -1.7080     2.1020 o          1 LQY      -0.611100
      7 C2          -0.3860     3.9760    -0.5260 ca         1 LQY      -0.211000
      8 N2          -2.8800    -0.0960     0.4500 n2         1 LQY      -0.450300
      9 O2           8.6600    -0.7290    -1.9580 o          1 LQY      -0.612100
     10 C3          -1.6000     3.2990    -0.3300 ca         1 LQY      -0.050000
     11 N3          -4.0380    -0.8720     0.3960 n          1 LQY      -0.178800
     12 O3          -6.2380    -1.0500     1.1310 o          1 LQY      -0.533000
     13 C4          -1.6180     1.9540     0.1020 ca         1 LQY      -0.159900
     14 C5          -0.3780     1.3040     0.3070 ca         1 LQY      -0.031000
     15 C6           0.8620     1.9600     0.1090 cp         1 LQY      -0.085000
     16 C7           2.1360     1.2110     0.3460 cp         1 LQY       0.000000
     17 C8           2.3150     0.4450     1.5210 ca         1 LQY      -0.103500
     18 C9           3.5000    -0.2750     1.7480 ca         1 LQY      -0.073500
     19 C10          4.5490    -0.2600     0.8020 ca         1 LQY      -0.148600
     20 C11          4.3740     0.4970    -0.3820 ca         1 LQY      -0.073500
     21 C12          3.1860     1.2160    -0.6020 ca         1 LQY      -0.103500
     22 C13          5.8140    -1.0500     1.0800 c          1 LQY       0.616700
     23 C14          8.1040    -1.6990     0.2190 c3         1 LQY       0.017000
     24 C15          8.9950    -1.4340    -1.0170 c          1 LQY       0.593100
     25 C16         -2.9080     1.1960     0.2990 ce         1 LQY       0.401900
     26 C17         -3.9760    -2.3040    -0.0040 c3         1 LQY       0.137700
     27 C18         -3.4450    -3.1620     1.1790 c3         1 LQY      -0.079900
     28 C19         -3.6620    -4.6880     1.0720 c3         1 LQY      -0.070900
     29 C20         -3.0980    -5.3660    -0.1980 c3         1 LQY      -0.072400
     30 C21         -3.8850    -5.0180    -1.4810 c3         1 LQY      -0.072400
     31 C22         -3.4820    -3.7020    -2.1850 c3         1 LQY      -0.070900
     32 C23         -3.1170    -2.4960    -1.2850 c3         1 LQY      -0.079900
     33 C24         -5.2710    -0.3380     0.8820 c          1 LQY       0.558000
     34 C25         -5.2850     1.1790     1.1960 c6         1 LQY      -0.141700
     35 C26         -6.6850     1.8600     1.1330 c6         1 LQY      -0.028200
     36 C27         -7.1180     2.2110    -0.2800 c2         1 LQY      -0.209200
     37 C28         -6.2680     2.2780    -1.3150 c2         1 LQY      -0.224200
     38 C29         -4.7790     1.9990    -1.1990 c6         1 LQY      -0.038200
     39 C30         -4.2660     1.9240     0.2740 c6         1 LQY      -0.129000
     40 H            3.2080     5.6410    -0.9140 h1         1 LQY       0.043700
     41 HA           1.7050     5.4880    -1.8480 h1         1 LQY       0.043700
     42 HB           1.6500     5.9930    -0.1370 h1         1 LQY       0.043700
     43 HN           6.6240    -0.4350    -0.6980 hn         1 LQY       0.345500
     44 HN1         10.8240    -1.8960    -1.8030 hn         1 LQY       0.319500
     45 HN1A        10.4840    -2.6200    -0.2430 hn         1 LQY       0.319500
     46 H2          -0.4200     5.0120    -0.8470 ha         1 LQY       0.120000
     47 H3          -2.5210     3.8430    -0.5220 ha         1 LQY       0.114000
     48 H5          -0.3590     0.2620     0.6200 ha         1 LQY       0.139000
     49 H8           1.5270     0.4180     2.2700 ha         1 LQY       0.120500
     50 H9           3.5980    -0.8470     2.6680 ha         1 LQY       0.125000
     51 H11          5.1450     0.5400    -1.1470 ha         1 LQY       0.125000
     52 H12          3.0720     1.7780    -1.5260 ha         1 LQY       0.120500
     53 H14          8.6430    -1.3590     1.1130 h1         1 LQY       0.066200
     54 H14A         7.9350    -2.7800     0.3000 h1         1 LQY       0.066200
     55 H17         -4.9960    -2.6320    -0.2420 h1         1 LQY       0.084700
     56 H18         -2.3770    -2.9600     1.3210 hc         1 LQY       0.047700
     57 H18A        -3.9380    -2.8260     2.0990 hc         1 LQY       0.047700
     58 H19         -3.1980    -5.1580     1.9480 hc         1 LQY       0.037950
     59 H19A        -4.7360    -4.9030     1.1480 hc         1 LQY       0.037950
     60 H20         -2.0350    -5.1250    -0.3220 hc         1 LQY       0.037950
     61 H20A        -3.1550    -6.4510    -0.0500 hc         1 LQY       0.037950
     62 H21         -3.7590    -5.8360    -2.2010 hc         1 LQY       0.037950
     63 H21A        -4.9570    -4.9900    -1.2490 hc         1 LQY       0.037950
     64 H22         -2.6260    -3.9030    -2.8410 hc         1 LQY       0.037950
     65 H22A        -4.3050    -3.4090    -2.8480 hc         1 LQY       0.037950
     66 H23         -3.2030    -1.5970    -1.9090 hc         1 LQY       0.047700
     67 H23A        -2.0580    -2.5600    -1.0060 hc         1 LQY       0.047700
     68 H25         -4.8990     1.2520     2.2220 hc         1 LQY       0.077700
     69 H26         -7.4420     1.2220     1.6100 hc         1 LQY       0.062700
     70 H26A        -6.6630     2.7850     1.7260 hc         1 LQY       0.062700
     71 H27         -8.1820     2.4190    -0.4200 ha         1 LQY       0.177000
     72 H28         -6.6320     2.5390    -2.3120 ha         1 LQY       0.176000
     73 H29         -4.5690     1.0540    -1.7200 hc         1 LQY       0.057200
     74 H29A        -4.2210     2.7700    -1.7490 hc         1 LQY       0.057200
     75 H30         -4.1520     2.9430     0.6650 hc         1 LQY       0.071700
@<TRIPOS>BOND
     1     1     3 1   
     2     1    40 1   
     3     1    41 1   
     4     1    42 1   
     5     2    22 1   
     6     2    23 1   
     7     2    43 1   
     8     3     4 1   
     9     4     7 ar  
    10     4    15 ar  
    11     5    24 1   
    12     5    44 1   
    13     5    45 1   
    14     6    22 2   
    15     7    10 ar  
    16     7    46 1   
    17     8    11 1   
    18     8    25 2   
    19     9    24 2   
    20    10    13 ar  
    21    10    47 1   
    22    11    26 1   
    23    11    33 1   
    24    12    33 2   
    25    13    14 ar  
    26    13    25 1   
    27    14    15 ar  
    28    14    48 1   
    29    15    16 1   
    30    16    17 ar  
    31    16    21 ar  
    32    17    18 ar  
    33    17    49 1   
    34    18    19 ar  
    35    18    50 1   
    36    19    20 ar  
    37    19    22 1   
    38    20    21 ar  
    39    20    51 1   
    40    21    52 1   
    41    23    24 1   
    42    23    53 1   
    43    23    54 1   
    44    25    39 1   
    45    26    27 1   
    46    26    32 1   
    47    26    55 1   
    48    27    28 1   
    49    27    56 1   
    50    27    57 1   
    51    28    29 1   
    52    28    58 1   
    53    28    59 1   
    54    29    30 1   
    55    29    60 1   
    56    29    61 1   
    57    30    31 1   
    58    30    62 1   
    59    30    63 1   
    60    31    32 1   
    61    31    64 1   
    62    31    65 1   
    63    32    66 1   
    64    32    67 1   
    65    33    34 1   
    66    34    35 1   
    67    34    39 1   
    68    34    68 1   
    69    35    36 1   
    70    35    69 1   
    71    35    70 1   
    72    36    37 2   
    73    36    71 1   
    74    37    38 1   
    75    37    72 1   
    76    38    39 1   
    77    38    73 1   
    78    38    74 1   
    79    39    75 1   
@<TRIPOS>SUBSTRUCTURE
     1 LQY         1 TEMP              0 ****  ****    0 ROOT
