@<TRIPOS>MOLECULE
LQZ
   39    39     1     0     0
SMALL
No Charge or Current Charge


@<TRIPOS>ATOM
      1 C            0.6060    -0.8770     0.5310 c          1 LQZ       0.595100
      2 N            3.0000     0.0110    -0.0980 n3         1 LQZ      -0.710600
      3 O            0.4410    -2.0450     0.1890 o          1 LQZ      -0.557100
      4 CA           1.9900    -0.3170     0.9720 c3         1 LQZ       0.094800
      5 CAA          3.3300     1.1460    -2.3690 c3         1 LQZ      -0.089600
      6 CAB          5.0130    -0.5840     1.3650 c3         1 LQZ      -0.089600
      7 CAF         -4.5330    -0.3180    -0.4070 ca         1 LQZ      -0.106000
      8 CAG         -3.9770    -1.1290     0.5930 ca         1 LQZ      -0.107500
      9 CAH         -3.7330     0.6200    -1.0730 ca         1 LQZ      -0.107500
     10 CAI          2.4530     0.9510    -1.1160 c3         1 LQZ       0.174800
     11 CAJ          4.3130     0.4470     0.4560 c3         1 LQZ       0.174800
     12 NAL         -0.4160     0.0630     0.5340 ns         1 LQZ      -0.180000
     13 CAN         -2.6140    -1.0190     0.9320 ca         1 LQZ      -0.068800
     14 CAO         -2.3680     0.7480    -0.7540 ca         1 LQZ      -0.068800
     15 CAP         -1.7970    -0.0870     0.2370 ca         1 LQZ      -0.045000
     16 HA           1.8000     0.5770     1.5820 h1         1 LQZ       0.042700
     17 HAA          2.3960    -1.0740     1.6540 h1         1 LQZ       0.042700
     18 HAAA         3.6080     0.1780    -2.8020 hc         1 LQZ       0.039033
     19 HAAB         2.7780     1.7130    -3.1270 hc         1 LQZ       0.039033
     20 HAAC         4.2430     1.7050    -2.1370 hc         1 LQZ       0.039033
     21 HAB          4.4830    -0.7060     2.3160 hc         1 LQZ       0.039033
     22 HABA         5.0780    -1.5580     0.8680 hc         1 LQZ       0.039033
     23 HABB         6.0320    -0.2490     1.5950 hc         1 LQZ       0.039033
     24 HAC         -1.6630    -2.8230     1.6930 hc         1 LQZ       0.043700
     25 HACA        -1.3100    -1.3710     2.6540 hc         1 LQZ       0.043700
     26 HACB        -2.8830    -2.1490     2.7760 hc         1 LQZ       0.043700
     27 HAD         -1.0080     2.4500    -0.8100 hc         1 LQZ       0.043700
     28 HADA        -0.7610     1.2800    -2.1190 hc         1 LQZ       0.043700
     29 HADB        -2.1300     2.3950    -2.1720 hc         1 LQZ       0.043700
     30 HAF         -5.5870    -0.4110    -0.6590 ha         1 LQZ       0.113000
     31 HAG         -4.6130    -1.8410     1.1140 ha         1 LQZ       0.113000
     32 HAH         -4.1780     1.2490    -1.8410 ha         1 LQZ       0.113000
     33 HAI          1.4860     0.5750    -1.4740 h1         1 LQZ       0.027950
     34 HAIA         2.2650     1.9330    -0.6610 h1         1 LQZ       0.027950
     35 HAJ          5.0120     0.6530    -0.3640 h1         1 LQZ       0.027950
     36 HAJA         4.1930     1.3850     1.0160 h1         1 LQZ       0.027950
     37 HNAL        -0.1330     1.0060     0.7680 hn         1 LQZ       0.149000
     38 CAC         -2.0840    -1.8850     2.0730 c3         1 LQZ      -0.046300
     39 CAD         -1.5210     1.7740    -1.5040 c3         1 LQZ      -0.046300
@<TRIPOS>BOND
     1     1     3 2   
     2     1     4 1   
     3     1    12 1   
     4     2     4 1   
     5     2    10 1   
     6     2    11 1   
     7     4    16 1   
     8     4    17 1   
     9     5    10 1   
    10     5    18 1   
    11     5    19 1   
    12     5    20 1   
    13     6    11 1   
    14     6    21 1   
    15     6    22 1   
    16     6    23 1   
    17     7     8 ar  
    18     7     9 ar  
    19     7    30 1   
    20     8    13 ar  
    21     8    31 1   
    22     9    14 ar  
    23     9    32 1   
    24    10    33 1   
    25    10    34 1   
    26    11    35 1   
    27    11    36 1   
    28    12    15 1   
    29    12    37 1   
    30    13    15 ar  
    31    13    38 1   
    32    14    15 ar  
    33    14    39 1   
    34    24    38 1   
    35    25    38 1   
    36    26    38 1   
    37    27    39 1   
    38    28    39 1   
    39    29    39 1   
@<TRIPOS>SUBSTRUCTURE
     1 LQZ         1 TEMP              0 ****  ****    0 ROOT
