@<TRIPOS>MOLECULE
LQZ
   39    39     1     0     0
SMALL
abcg2


@<TRIPOS>ATOM
      1 C            0.5600    -0.1650     0.2640 c          1 LQZ       0.595100
      2 N            2.9590     0.2000    -0.1030 n3         1 LQZ      -0.710600
      3 O            0.5300    -1.1730    -0.4160 o          1 LQZ      -0.557100
      4 CA           1.8510     0.4580     0.7740 c3         1 LQZ       0.094800
      5 CAA          3.6040     0.3530    -2.4880 c3         1 LQZ      -0.089600
      6 CAB          4.5560    -0.8570     1.4710 c3         1 LQZ      -0.089600
      7 CAF         -4.4440    -0.6860    -0.3240 ca         1 LQZ      -0.106000
      8 CAG         -3.6990    -1.4560     0.5540 ca         1 LQZ      -0.107500
      9 CAH         -3.9010     0.4690    -0.8660 ca         1 LQZ      -0.107500
     10 CAI          2.8890     1.0040    -1.3160 c3         1 LQZ       0.174800
     11 CAJ          4.2400     0.3310     0.5770 c3         1 LQZ       0.174800
     12 NAL         -0.5550     0.4830     0.6730 ns         1 LQZ      -0.180000
     13 CAN         -2.4010    -1.0910     0.9070 ca         1 LQZ      -0.068800
     14 CAO         -2.6060     0.8620    -0.5450 ca         1 LQZ      -0.068800
     15 CAP         -1.8670     0.0700     0.3390 ca         1 LQZ      -0.045000
     16 HA           1.6990     1.5330     0.9720 h1         1 LQZ       0.042700
     17 HAA          2.0390     0.0040     1.7520 h1         1 LQZ       0.042700
     18 HAAA         3.1480    -0.6080    -2.7230 hc         1 LQZ       0.039033
     19 HAAB         3.5400     0.9890    -3.3720 hc         1 LQZ       0.039033
     20 HAAC         4.6630     0.1840    -2.2870 hc         1 LQZ       0.039033
     21 HAB          3.8320    -0.9770     2.2780 hc         1 LQZ       0.039033
     22 HABA         4.5690    -1.7800     0.8930 hc         1 LQZ       0.039033
     23 HABB         5.5350    -0.7310     1.9340 hc         1 LQZ       0.039033
     24 HAC         -0.9220    -2.5850     1.3610 hc         1 LQZ       0.043700
     25 HACA        -1.0370    -1.3110     2.5620 hc         1 LQZ       0.043700
     26 HACB        -2.2880    -2.5510     2.4700 hc         1 LQZ       0.043700
     27 HAD         -1.8570     2.8790    -0.3750 hc         1 LQZ       0.043700
     28 HADA        -1.0450     1.9170    -1.5970 hc         1 LQZ       0.043700
     29 HADB        -2.6720     2.5300    -1.8930 hc         1 LQZ       0.043700
     30 HAF         -5.4520    -0.9830    -0.5830 ha         1 LQZ       0.113000
     31 HAG         -4.1310    -2.3510     0.9850 ha         1 LQZ       0.113000
     32 HAH         -4.4850     1.0710    -1.5520 ha         1 LQZ       0.113000
     33 HAI          1.8400     1.1340    -1.5910 h1         1 LQZ       0.027950
     34 HAIA         3.2800     2.0190    -1.1450 h1         1 LQZ       0.027950
     35 HAJ          5.0200     0.4020    -0.1820 h1         1 LQZ       0.027950
     36 HAJA         4.2950     1.2660     1.1570 h1         1 LQZ       0.027950
     37 HNAL        -0.4430     1.3810     1.1200 hn         1 LQZ       0.149000
     38 CAC         -1.6210    -1.9250     1.8780 c3         1 LQZ      -0.046300
     39 CAD         -2.0140     2.1090    -1.1340 c3         1 LQZ      -0.046300
@<TRIPOS>BOND
     1     1     3 2   
     2     1     4 1   
     3     1    12 1   
     4     2     4 1   
     5     2    10 1   
     6     2    11 1   
     7     4    16 1   
     8     4    17 1   
     9     5    10 1   
    10     5    18 1   
    11     5    19 1   
    12     5    20 1   
    13     6    11 1   
    14     6    21 1   
    15     6    22 1   
    16     6    23 1   
    17     7     8 ar  
    18     7     9 ar  
    19     7    30 1   
    20     8    13 ar  
    21     8    31 1   
    22     9    14 ar  
    23     9    32 1   
    24    10    33 1   
    25    10    34 1   
    26    11    35 1   
    27    11    36 1   
    28    12    15 1   
    29    12    37 1   
    30    13    15 ar  
    31    13    38 1   
    32    14    15 ar  
    33    14    39 1   
    34    24    38 1   
    35    25    38 1   
    36    26    38 1   
    37    27    39 1   
    38    28    39 1   
    39    29    39 1   
@<TRIPOS>SUBSTRUCTURE
     1 LQZ         1 TEMP              0 ****  ****    0 ROOT
