@<TRIPOS>MOLECULE
LR0
   36    38     1     0     0
SMALL
abcg2


@<TRIPOS>ATOM
      1 N1           7.2440     1.1900    17.5920 nb         1 LR0      -0.673000
      2 C4           5.9220     1.3260    17.6130 ca         1 LR0       0.358900
      3 C5           7.8260     0.8750    18.7400 ca         1 LR0       0.372900
      4 C6           7.1440     0.6980    19.9310 ca         1 LR0      -0.171000
      5 C7           8.6820     1.2330    21.7400 c          1 LR0       0.615100
      6 C8           9.4060     0.6200    22.9170 cy         1 LR0      -0.118400
      7 C10         11.4750     0.7340    23.3150 ca         1 LR0      -0.114300
      8 C13         12.5600    -1.3350    21.9400 ca         1 LR0       0.168000
      9 C15         10.6880    -0.1070    22.5500 ca         1 LR0      -0.098300
     10 N2           7.8410     0.3660    21.1120 ns         1 LR0      -0.182000
     11 C1           3.7500     0.6470    21.4100 c          1 LR0       0.612100
     12 C11         12.8390     0.5580    23.4180 ca         1 LR0      -0.051000
     13 O1           8.8450     2.3760    21.3670 o          1 LR0      -0.556100
     14 C2           5.7490     0.8540    19.9510 ca         1 LR0       0.022000
     15 F           13.1370    -2.3550    21.2790 f          1 LR0      -0.178000
     16 C9          10.3030     1.5720    23.7700 cy         1 LR0      -0.005100
     17 C12         13.3790    -0.5120    22.7010 ca         1 LR0      -0.147000
     18 C14         11.1840    -1.1720    21.8290 ca         1 LR0      -0.115000
     19 C            3.4320     0.4570    22.8700 c3         1 LR0      -0.184100
     20 O            2.9030     0.7400    20.5480 o          1 LR0      -0.560100
     21 C3           5.1320     1.1680    18.7370 ca         1 LR0      -0.189000
     22 H1           5.4480     1.5780    16.6710 h4         1 LR0       0.023100
     23 H2           8.9030     0.7470    18.7290 h4         1 LR0       0.027100
     24 H3           8.7180     0.0150    23.5140 hc         1 LR0       0.075700
     25 H4           5.7040     0.5810    21.9570 hn         1 LR0       0.155000
     26 H5           7.7670    -0.5810    21.4600 hn         1 LR0       0.154000
     27 H6          13.4800     1.1950    24.0140 ha         1 LR0       0.129000
     28 H7          10.3060     2.6110    23.4450 hc         1 LR0       0.076700
     29 H8          10.0870     1.5380    24.8390 hc         1 LR0       0.076700
     30 H9          14.4430    -0.7130    22.7320 ha         1 LR0       0.134000
     31 H10         10.5790    -1.8390    21.2280 ha         1 LR0       0.137000
     32 H11          2.3570     0.4410    23.0210 hc         1 LR0       0.066700
     33 H12          3.8540    -0.4810    23.2360 hc         1 LR0       0.066700
     34 H13          3.8630     1.2610    23.4680 hc         1 LR0       0.066700
     35 H14          4.0670     1.3020    18.6590 ha         1 LR0       0.156000
     36 N            5.0970     0.6980    21.1570 ns         1 LR0      -0.152000
@<TRIPOS>BOND
     1     1     2 ar  
     2     1     3 ar  
     3     2    21 ar  
     4     2    22 1   
     5     3     4 ar  
     6     3    23 1   
     7     4    10 1   
     8     4    14 ar  
     9     5     6 1   
    10     5    10 1   
    11     5    13 2   
    12     6     9 1   
    13     6    16 1   
    14     6    24 1   
    15     7     9 ar  
    16     7    12 ar  
    17     7    16 1   
    18     8    15 1   
    19     8    17 ar  
    20     8    18 ar  
    21     9    18 ar  
    22    10    26 1   
    23    11    19 1   
    24    11    20 2   
    25    11    36 1   
    26    12    17 ar  
    27    12    27 1   
    28    14    21 ar  
    29    14    36 1   
    30    16    28 1   
    31    16    29 1   
    32    17    30 1   
    33    18    31 1   
    34    19    32 1   
    35    19    33 1   
    36    19    34 1   
    37    21    35 1   
    38    25    36 1   
@<TRIPOS>SUBSTRUCTURE
     1 LR0         1 TEMP              0 ****  ****    0 ROOT
