@<TRIPOS>MOLECULE
LR0
   36    38     1     0     0
SMALL
No Charge or Current Charge


@<TRIPOS>ATOM
      1 N1           6.7050     1.7770    17.3960 nb         1 LR0      -0.673000
      2 C4           5.4150     2.0430    17.6870 ca         1 LR0       0.358900
      3 C5           7.4730     1.2400    18.3710 ca         1 LR0       0.372900
      4 C6           6.9910     0.9450    19.6700 ca         1 LR0      -0.171000
      5 C7           9.2080     0.3100    20.8200 c          1 LR0       0.615100
      6 C8           9.5590    -0.5630    22.0800 cy         1 LR0      -0.118400
      7 C10         11.0900     0.3580    23.2130 ca         1 LR0      -0.114300
      8 C13         13.3510    -1.1170    22.6880 ca         1 LR0       0.168000
      9 C15         11.0370    -0.7030    22.3730 ca         1 LR0      -0.098300
     10 N2           7.8230     0.3560    20.6740 ns         1 LR0      -0.182000
     11 C1           3.8240     0.8440    21.7420 c          1 LR0       0.612100
     12 C11         12.2560     0.7760    23.8540 ca         1 LR0      -0.051000
     13 O1           9.9370     0.8970    20.0280 o          1 LR0      -0.556100
     14 C2           5.6330     1.2100    19.9590 ca         1 LR0       0.022000
     15 F           14.4730    -1.8290    22.4450 f          1 LR0      -0.178000
     16 C9           9.6210     0.7190    23.0840 cy         1 LR0      -0.005100
     17 C12         13.4120     0.0030    23.5720 ca         1 LR0      -0.147000
     18 C14         12.1380    -1.4980    22.0610 ca         1 LR0      -0.115000
     19 C            3.7340     0.5870    23.2430 c3         1 LR0      -0.184100
     20 O            2.8190     0.9430    21.0490 o          1 LR0      -0.560100
     21 C3           4.8450     1.7790    18.9390 ca         1 LR0      -0.189000
     22 H1           4.8190     2.4840    16.8880 h4         1 LR0       0.023100
     23 H2           8.4970     1.0200    18.0770 h4         1 LR0       0.027100
     24 H3           8.8750    -1.3830    22.3260 hc         1 LR0       0.075700
     25 H4           5.8350     0.8080    21.9650 hn         1 LR0       0.155000
     26 H5           7.3170    -0.1430    21.3950 hn         1 LR0       0.154000
     27 H6          12.2760     1.6340    24.5230 ha         1 LR0       0.129000
     28 H7           9.4400     1.7290    22.6930 hc         1 LR0       0.076700
     29 H8           9.0510     0.6020    24.0120 hc         1 LR0       0.076700
     30 H9          14.3600     0.2660    24.0340 ha         1 LR0       0.134000
     31 H10         12.0760    -2.3480    21.3870 ha         1 LR0       0.137000
     32 H11          2.7000     0.5120    23.5970 hc         1 LR0       0.066700
     33 H12          4.3110    -0.3130    23.4870 hc         1 LR0       0.066700
     34 H13          4.2880     1.3700    23.7740 hc         1 LR0       0.066700
     35 H14          3.8040     2.0370    19.0920 ha         1 LR0       0.156000
     36 N            5.1220     0.9350    21.2590 ns         1 LR0      -0.152000
@<TRIPOS>BOND
     1     1     2 ar  
     2     1     3 ar  
     3     2    21 ar  
     4     2    22 1   
     5     3     4 ar  
     6     3    23 1   
     7     4    10 1   
     8     4    14 ar  
     9     5     6 1   
    10     5    10 1   
    11     5    13 2   
    12     6     9 1   
    13     6    16 1   
    14     6    24 1   
    15     7     9 ar  
    16     7    12 ar  
    17     7    16 1   
    18     8    15 1   
    19     8    17 ar  
    20     8    18 ar  
    21     9    18 ar  
    22    10    26 1   
    23    11    19 1   
    24    11    20 2   
    25    11    36 1   
    26    12    17 ar  
    27    12    27 1   
    28    14    21 ar  
    29    14    36 1   
    30    16    28 1   
    31    16    29 1   
    32    17    30 1   
    33    18    31 1   
    34    19    32 1   
    35    19    33 1   
    36    19    34 1   
    37    21    35 1   
    38    25    36 1   
@<TRIPOS>SUBSTRUCTURE
     1 LR0         1 TEMP              0 ****  ****    0 ROOT
