@<TRIPOS>MOLECULE
LR1
   37    38     1     0     0
SMALL
bcc


@<TRIPOS>ATOM
      1 CAH         -2.1320    -1.7170     0.2870 ca         1 LR1      -0.120500
      2 CAF         -3.4700    -1.3540     0.3330 ca         1 LR1      -0.104500
      3 CAM         -3.7980    -0.0290     0.5830 ca         1 LR1      -0.018900
      4 BR          -5.6170     0.4850     0.6370 br         1 LR1      -0.103100
      5 CAG         -2.8110     0.9230     0.7840 ca         1 LR1      -0.104500
      6 CAI         -1.4780     0.5370     0.7390 ca         1 LR1      -0.120500
      7 CAN         -1.1180    -0.7850     0.4940 ca         1 LR1      -0.075300
      8 CAK          0.3250    -1.2250     0.4760 c3         1 LR1       0.222100
      9 NAL          1.2140    -0.1430     0.1160 n7         1 LR1      -0.827200
     10 CAS          2.6070    -0.3120     0.4510 c5         1 LR1       0.190500
     11 CAQ          3.4450    -1.2330    -0.4360 c5         1 LR1       0.075100
     12 OAD          3.1020    -2.5810    -0.2360 oh         1 LR1      -0.593800
     13 CAO          4.8630    -0.8610    -0.0240 c5         1 LR1       0.065100
     14 OAB          5.8870    -1.3350    -0.8660 oh         1 LR1      -0.596800
     15 CAP          4.8220     0.6600    -0.0390 c5         1 LR1       0.160100
     16 OAC          5.8200     1.2730     0.7380 oh         1 LR1      -0.577800
     17 CAR          3.4170     1.0190     0.4800 c5         1 LR1      -0.060700
     18 CAJ          2.7710     2.1370    -0.3210 c3         1 LR1       0.148400
     19 OAA          3.6010     3.2750    -0.2470 oh         1 LR1      -0.589800
     20 HAH         -1.8790    -2.7510     0.0810 ha         1 LR1       0.141000
     21 HAF         -4.2370    -2.0990     0.1680 ha         1 LR1       0.146000
     22 HAG         -3.0640     1.9570     0.9740 ha         1 LR1       0.146000
     23 HAI         -0.7050     1.2790     0.8870 ha         1 LR1       0.141000
     24 HAK1         0.5980    -1.5600     1.4820 h1         1 LR1       0.049200
     25 HAK2         0.4130    -2.1100    -0.1650 h1         1 LR1       0.049200
     26 HAL          1.0980     0.0820    -0.8650 hn         1 LR1       0.362800
     27 HAS          2.6330    -0.7310     1.4630 h1         1 LR1       0.075700
     28 HAQ          3.2990    -0.9420    -1.4890 h1         1 LR1       0.043700
     29 HAR          3.5040     1.3560     1.5170 hc         1 LR1       0.091700
     30 HAD          3.4820    -3.1060    -0.9470 ho         1 LR1       0.409000
     31 HAO          5.0190    -1.2000     1.0120 h1         1 LR1       0.057700
     32 HAB          6.0730    -2.2520    -0.6450 ho         1 LR1       0.410000
     33 HAP          4.9070     0.9770    -1.0910 h1         1 LR1       0.048700
     34 HAC          6.6750     1.0430     0.3610 ho         1 LR1       0.414000
     35 HAJ1         2.6370     1.8140    -1.3650 h1         1 LR1       0.022700
     36 HAJ2         1.7730     2.3420     0.0810 h1         1 LR1       0.022700
     37 HAA          3.2060     3.9650    -0.7870 ho         1 LR1       0.402000
@<TRIPOS>BOND
     1     1     2 ar  
     2     1     7 ar  
     3     1    20 1   
     4     2     3 ar  
     5     2    21 1   
     6     3     4 1   
     7     3     5 ar  
     8     5     6 ar  
     9     5    22 1   
    10     6     7 ar  
    11     6    23 1   
    12     7     8 1   
    13     8     9 1   
    14     8    24 1   
    15     8    25 1   
    16     9    10 1   
    17     9    26 1   
    18    10    11 1   
    19    10    17 1   
    20    10    27 1   
    21    11    12 1   
    22    11    13 1   
    23    11    28 1   
    24    12    30 1   
    25    13    14 1   
    26    13    15 1   
    27    13    31 1   
    28    14    32 1   
    29    15    16 1   
    30    15    17 1   
    31    15    33 1   
    32    16    34 1   
    33    17    18 1   
    34    17    29 1   
    35    18    19 1   
    36    18    35 1   
    37    18    36 1   
    38    19    37 1   
@<TRIPOS>SUBSTRUCTURE
     1 LR1         1 TEMP              0 ****  ****    0 ROOT
