@<TRIPOS>MOLECULE
LR1
   37    38     1     0     0
SMALL
No Charge or Current Charge


@<TRIPOS>ATOM
      1 CAH         -1.5770    -1.4430    -0.4490 ca         1 LR1      -0.102500
      2 CAF         -2.8720    -1.1350    -0.9010 ca         1 LR1      -0.086500
      3 CAM         -3.5880    -0.0800    -0.3110 ca         1 LR1      -0.018900
      4 Br          -5.3490     0.3390    -0.9270 br         1 LR1      -0.103100
      5 CAG         -3.0130     0.6680     0.7280 ca         1 LR1      -0.086500
      6 CAI         -1.7170     0.3600     1.1810 ca         1 LR1      -0.102500
      7 CAN         -0.9930    -0.6980     0.5960 ca         1 LR1      -0.075300
      8 CAK          0.4090    -1.0290     1.0890 c3         1 LR1       0.222100
      9 NAL          1.3860    -0.0920     0.5030 n7         1 LR1      -0.882400
     10 CAS          2.8110    -0.2320     0.9340 c5         1 LR1       0.190500
     11 CAQ          3.4480    -1.4620     0.1680 c5         1 LR1       0.098300
     12 OAD          3.6170    -2.6390     0.9750 oh         1 LR1      -0.716000
     13 CAO          4.8110    -0.8880    -0.3050 c5         1 LR1       0.088300
     14 OAB          5.4360    -1.6970    -1.3110 oh         1 LR1      -0.659000
     15 CAP          4.3450     0.5020    -0.8260 c5         1 LR1       0.183300
     16 OAC          5.4650     1.2850    -1.2480 oh         1 LR1      -0.700000
     17 CAR          3.6380     1.0280     0.4620 c5         1 LR1      -0.060700
     18 CAJ          2.8310     2.3510     0.3250 c3         1 LR1       0.171600
     19 OAA          3.6980     3.4910     0.2360 oh         1 LR1      -0.652000
     20 HAH         -1.0280    -2.2610    -0.9110 ha         1 LR1       0.123000
     21 HAF         -3.3180    -1.7130    -1.7070 ha         1 LR1       0.128000
     22 HAG         -3.5670     1.4870     1.1830 ha         1 LR1       0.128000
     23 HAI         -1.2730     0.9440     1.9830 ha         1 LR1       0.123000
     24 HAK1         0.4260    -0.9660     2.1860 h1         1 LR1       0.049200
     25 HAK2         0.6500    -2.0650     0.8170 h1         1 LR1       0.049200
     26 HAL          1.3140    -0.1470    -0.5190 hn         1 LR1       0.418000
     27 HAS          2.8840    -0.3400     2.0270 h1         1 LR1       0.075700
     28 HAQ          2.8440    -1.7110    -0.7170 h1         1 LR1       0.043700
     29 HAR          4.3950     1.2360     1.2270 hc         1 LR1       0.091700
     30 HAD          2.7180    -2.9820     1.1850 ho         1 LR1       0.508000
     31 HAO          5.4920    -0.7720     0.5510 h1         1 LR1       0.057700
     32 HAB          5.4020    -2.6200    -0.9730 ho         1 LR1       0.449000
     33 HAP          3.6270     0.3920    -1.6520 h1         1 LR1       0.048700
     34 HAC          6.0420     0.6580    -1.7450 ho         1 LR1       0.513000
     35 HAJ1         2.1840     2.2940    -0.5610 h1         1 LR1       0.022700
     36 HAJ2         2.1830     2.4590     1.2060 h1         1 LR1       0.022700
     37 HAA          3.1220     4.2780     0.1210 ho         1 LR1       0.441000
@<TRIPOS>BOND
     1     1     2 ar  
     2     1     7 ar  
     3     1    20 1   
     4     2     3 ar  
     5     2    21 1   
     6     3     4 1   
     7     3     5 ar  
     8     5     6 ar  
     9     5    22 1   
    10     6     7 ar  
    11     6    23 1   
    12     7     8 1   
    13     8     9 1   
    14     8    24 1   
    15     8    25 1   
    16     9    10 1   
    17     9    26 1   
    18    10    11 1   
    19    10    17 1   
    20    10    27 1   
    21    11    12 1   
    22    11    13 1   
    23    11    28 1   
    24    12    30 1   
    25    13    14 1   
    26    13    15 1   
    27    13    31 1   
    28    14    32 1   
    29    15    16 1   
    30    15    17 1   
    31    15    33 1   
    32    16    34 1   
    33    17    18 1   
    34    17    29 1   
    35    18    19 1   
    36    18    35 1   
    37    18    36 1   
    38    19    37 1   
@<TRIPOS>SUBSTRUCTURE
     1 LR1         1 TEMP              0 ****  ****    0 ROOT
