@<TRIPOS>MOLECULE
LR4
   59    63     1     0     0
SMALL
No Charge or Current Charge


@<TRIPOS>ATOM
      1 C4          17.8930    -0.1030     6.0590 c6         1 LR4      -0.005000
      2 C5          15.9800     0.3390     4.4170 cc         1 LR4      -0.202300
      3 C6          17.0240    -0.4580     4.8390 cd         1 LR4      -0.024300
      4 C7          17.1790    -1.6530     4.0440 cd         1 LR4      -0.160000
      5 C8          16.2600    -1.7290     3.0210 cc         1 LR4       0.267000
      6 C10         17.4860    -1.0560     7.2330 c3         1 LR4      -0.077100
      7 C17         22.8650    -0.8940     6.2960 ca         1 LR4       0.355000
      8 C20         25.3970    -1.5760     7.1720 ca         1 LR4      -0.218000
      9 C21         24.3200    -1.7550     8.0500 ca         1 LR4      -0.049000
     10 C22         23.0390    -1.4090     7.6000 ca         1 LR4      -0.174000
     11 C26         26.1830     0.3620     4.0540 c6         1 LR4       0.233500
     12 C1          15.5640     1.6420     5.0580 c6         1 LR4       0.000900
     13 C11         19.3880    -0.2210     5.7770 cc         1 LR4       0.484300
     14 C14         21.4890    -0.5170     5.8100 cd         1 LR4       0.499000
     15 C19         25.1590    -1.0600     5.8850 ca         1 LR4       0.625900
     16 C2          16.1470     1.7690     6.4800 c6         1 LR4      -0.069400
     17 C23         18.1500    -2.6700     4.2580 ch         1 LR4       0.350000
     18 C27         27.0330     0.1560     2.7520 c6         1 LR4       0.151800
     19 C29         28.3350    -1.6220     3.7900 c6         1 LR4       0.152800
     20 C3          17.6450     1.3840     6.4840 c6         1 LR4      -0.070400
     21 C30         27.5360    -1.4750     5.1250 c6         1 LR4       0.221800
     22 C31         29.2180    -0.4820     1.7810 c3         1 LR4       0.150100
     23 C32         26.6570     1.6020     4.8620 c3         1 LR4      -0.107100
     24 N13         21.2590    -0.0250     4.5970 nc         1 LR4      -0.331300
     25 N15         20.3440    -0.6430     6.5820 nd         1 LR4      -0.713000
     26 N16         16.1430    -2.7370     2.0910 nv         1 LR4      -1.073000
     27 N18         23.9290    -0.7280     5.4580 nb         1 LR4      -0.732000
     28 N24         18.9680    -3.4840     4.4370 n1         1 LR4      -0.471000
     29 N25         26.1840    -0.8540     4.9420 nh         1 LR4      -0.774300
     30 N28         28.4140    -0.3500     3.0150 n3         1 LR4      -0.707600
     31 O12         19.8650     0.1840     4.5660 os         1 LR4      -0.085700
     32 S9          15.1770    -0.3370     3.0130 ss         1 LR4       0.155000
     33 H1          17.9770    -0.7720     8.1720 hc         1 LR4       0.052033
     34 H2          16.4050    -1.0410     7.4100 hc         1 LR4       0.052033
     35 H3          17.7630    -2.0960     7.0260 hc         1 LR4       0.052033
     36 H4          26.4000    -1.8240     7.5000 ha         1 LR4       0.121000
     37 H5          24.4740    -2.1490     9.0530 ha         1 LR4       0.116000
     38 H6          22.1840    -1.5360     8.2590 ha         1 LR4       0.145000
     39 H7          25.1610     0.5810     3.7080 h1         1 LR4       0.093700
     40 H8          15.9140     2.4850     4.4450 hc         1 LR4       0.053700
     41 H9          14.4700     1.7280     5.0990 hc         1 LR4       0.053700
     42 H10         16.0230     2.7990     6.8400 hc         1 LR4       0.048200
     43 H11         15.5850     1.1310     7.1750 hc         1 LR4       0.048200
     44 H12         27.0750     1.1090     2.2050 h1         1 LR4       0.041700
     45 H13         26.4970    -0.5540     2.1050 h1         1 LR4       0.041700
     46 H14         27.8520    -2.4010     3.1820 h1         1 LR4       0.038700
     47 H15         29.3450    -1.9860     4.0290 h1         1 LR4       0.038700
     48 H16         18.0760     1.5720     7.4770 hc         1 LR4       0.057700
     49 H17         18.1750     2.0590     5.7970 hc         1 LR4       0.057700
     50 H18         27.4360    -2.4790     5.5610 h1         1 LR4       0.044200
     51 H19         28.1290    -0.8710     5.8260 h1         1 LR4       0.044200
     52 H20         30.2370    -0.8150     2.0170 h1         1 LR4       0.031700
     53 H21         28.7670    -1.2120     1.0950 h1         1 LR4       0.031700
     54 H22         29.2890     0.4820     1.2610 h1         1 LR4       0.031700
     55 H23         26.0200     1.7710     5.7380 hc         1 LR4       0.042033
     56 H24         27.6880     1.4860     5.2140 hc         1 LR4       0.042033
     57 H25         26.6160     2.5070     4.2470 hc         1 LR4       0.042033
     58 H26         15.5130    -2.6290     1.2960 hn         1 LR4       0.487500
     59 H27         16.8600    -3.4590     2.0200 hn         1 LR4       0.487500
@<TRIPOS>BOND
     1     1     3 1   
     2     1     6 1   
     3     1    13 1   
     4     1    20 1   
     5     2     3 2   
     6     2    12 1   
     7     2    32 1   
     8     3     4 1   
     9     4     5 2   
    10     4    17 1   
    11     5    26 1   
    12     5    32 1   
    13     6    33 1   
    14     6    34 1   
    15     6    35 1   
    16     7    10 ar  
    17     7    14 1   
    18     7    27 ar  
    19     8     9 ar  
    20     8    15 ar  
    21     8    36 1   
    22     9    10 ar  
    23     9    37 1   
    24    10    38 1   
    25    11    18 1   
    26    11    23 1   
    27    11    29 1   
    28    11    39 1   
    29    12    16 1   
    30    12    40 1   
    31    12    41 1   
    32    13    25 2   
    33    13    31 1   
    34    14    24 2   
    35    14    25 1   
    36    15    27 ar  
    37    15    29 1   
    38    16    20 1   
    39    16    42 1   
    40    16    43 1   
    41    17    28 3   
    42    18    30 1   
    43    18    44 1   
    44    18    45 1   
    45    19    21 1   
    46    19    30 1   
    47    19    46 1   
    48    19    47 1   
    49    20    48 1   
    50    20    49 1   
    51    21    29 1   
    52    21    50 1   
    53    21    51 1   
    54    22    30 1   
    55    22    52 1   
    56    22    53 1   
    57    22    54 1   
    58    23    55 1   
    59    23    56 1   
    60    23    57 1   
    61    24    31 1   
    62    26    58 1   
    63    26    59 1   
@<TRIPOS>SUBSTRUCTURE
     1 LR4         1 TEMP              0 ****  ****    0 ROOT
