@<TRIPOS>MOLECULE
LR4
   59    63     1     0     0
SMALL
abcg2


@<TRIPOS>ATOM
      1 C4          18.0250    -0.1390     6.1220 c6         1 LR4      -0.005000
      2 C5          16.2240     0.4920     4.4990 cc         1 LR4      -0.202300
      3 C6          17.2320    -0.3320     4.8510 cd         1 LR4      -0.024300
      4 C7          17.4050    -1.4290     3.9290 cd         1 LR4      -0.160000
      5 C8          16.5090    -1.3960     2.8750 cc         1 LR4       0.267000
      6 C10         17.6080    -1.1840     7.1650 c3         1 LR4      -0.077100
      7 C17         22.8710    -1.0030     6.3540 ca         1 LR4       0.355000
      8 C20         25.3640    -1.6930     7.1570 ca         1 LR4      -0.218000
      9 C21         24.2950    -1.9480     7.9820 ca         1 LR4      -0.049000
     10 C22         23.0020    -1.6080     7.5900 ca         1 LR4      -0.174000
     11 C26         25.8560     0.0060     3.8440 c6         1 LR4       0.233500
     12 C1          15.7730     1.7160     5.2240 c6         1 LR4       0.000900
     13 C11         19.4920    -0.2750     5.8540 cc         1 LR4       0.484300
     14 C14         21.5440    -0.5840     5.8850 cd         1 LR4       0.499000
     15 C19         25.1250    -1.0960     5.8950 ca         1 LR4       0.625900
     16 C2          16.3230     1.6890     6.6470 c6         1 LR4      -0.069400
     17 C23         18.3930    -2.4240     4.0390 ch         1 LR4       0.350000
     18 C27         26.7860    -0.3630     2.6970 c6         1 LR4       0.151800
     19 C29         28.3890    -1.2780     4.1560 c6         1 LR4       0.152800
     20 C3          17.7940     1.2970     6.6580 c6         1 LR4      -0.070400
     21 C30         27.5180    -0.9790     5.3630 c6         1 LR4       0.221800
     22 C31         29.0600    -0.5480     1.9800 c3         1 LR4       0.150100
     23 C32         25.9540     1.4810     4.2230 c3         1 LR4      -0.107100
     24 N13         21.3420     0.0170     4.7500 nc         1 LR4      -0.331300
     25 N15         20.4040    -0.7860     6.6070 nd         1 LR4      -0.713000
     26 N16         16.3720    -2.2740     1.8670 nv         1 LR4      -1.073000
     27 N18         23.8900    -0.7530     5.5390 nb         1 LR4      -0.732000
     28 N24         19.2070    -3.2420     4.1220 n1         1 LR4      -0.471000
     29 N25         26.1210    -0.8660     4.9890 nh         1 LR4      -0.774300
     30 N28         28.1750    -0.3150     3.0990 n3         1 LR4      -0.707600
     31 O12         19.9920     0.2230     4.7300 os         1 LR4      -0.085700
     32 S9          15.4560    -0.0350     3.0270 ss         1 LR4       0.155000
     33 H1          18.1570    -1.0480     8.0950 hc         1 LR4       0.052033
     34 H2          16.5440    -1.0900     7.3770 hc         1 LR4       0.052033
     35 H3          17.7860    -2.1990     6.8110 hc         1 LR4       0.052033
     36 H4          26.3570    -1.9500     7.4910 ha         1 LR4       0.121000
     37 H5          24.4650    -2.4090     8.9460 ha         1 LR4       0.116000
     38 H6          22.1480    -1.7950     8.2230 ha         1 LR4       0.145000
     39 H7          24.8410    -0.1970     3.5060 h1         1 LR4       0.093700
     40 H8          16.1230     2.6120     4.7010 hc         1 LR4       0.053700
     41 H9          14.6830     1.7770     5.2420 hc         1 LR4       0.053700
     42 H10         16.2100     2.6740     7.1010 hc         1 LR4       0.048200
     43 H11         15.7380     0.9960     7.2550 hc         1 LR4       0.048200
     44 H12         26.6200     0.3420     1.8800 h1         1 LR4       0.041700
     45 H13         26.5140    -1.3650     2.3190 h1         1 LR4       0.041700
     46 H14         28.1840    -2.3070     3.8100 h1         1 LR4       0.038700
     47 H15         29.4330    -1.2480     4.4740 h1         1 LR4       0.038700
     48 H16         18.2000     1.3590     7.6690 hc         1 LR4       0.057700
     49 H17         18.3500     2.0130     6.0460 hc         1 LR4       0.057700
     50 H18         27.6560    -1.8000     6.0630 h1         1 LR4       0.044200
     51 H19         27.8690    -0.0670     5.8600 h1         1 LR4       0.044200
     52 H20         30.0990    -0.4760     2.3030 h1         1 LR4       0.031700
     53 H21         28.9190    -1.5370     1.5170 h1         1 LR4       0.031700
     54 H22         28.8940     0.2080     1.2110 h1         1 LR4       0.031700
     55 H23         25.2510     1.7240     5.0200 hc         1 LR4       0.042033
     56 H24         26.9560     1.7480     4.5560 hc         1 LR4       0.042033
     57 H25         25.7110     2.1080     3.3640 hc         1 LR4       0.042033
     58 H26         15.8450    -2.0180     1.0480 hn         1 LR4       0.487500
     59 H27         17.1080    -2.9430     1.7020 hn         1 LR4       0.487500
@<TRIPOS>BOND
     1     1     3 1   
     2     1     6 1   
     3     1    13 1   
     4     1    20 1   
     5     2     3 2   
     6     2    12 1   
     7     2    32 1   
     8     3     4 1   
     9     4     5 2   
    10     4    17 1   
    11     5    26 1   
    12     5    32 1   
    13     6    33 1   
    14     6    34 1   
    15     6    35 1   
    16     7    10 ar  
    17     7    14 1   
    18     7    27 ar  
    19     8     9 ar  
    20     8    15 ar  
    21     8    36 1   
    22     9    10 ar  
    23     9    37 1   
    24    10    38 1   
    25    11    18 1   
    26    11    23 1   
    27    11    29 1   
    28    11    39 1   
    29    12    16 1   
    30    12    40 1   
    31    12    41 1   
    32    13    25 2   
    33    13    31 1   
    34    14    24 2   
    35    14    25 1   
    36    15    27 ar  
    37    15    29 1   
    38    16    20 1   
    39    16    42 1   
    40    16    43 1   
    41    17    28 3   
    42    18    30 1   
    43    18    44 1   
    44    18    45 1   
    45    19    21 1   
    46    19    30 1   
    47    19    46 1   
    48    19    47 1   
    49    20    48 1   
    50    20    49 1   
    51    21    29 1   
    52    21    50 1   
    53    21    51 1   
    54    22    30 1   
    55    22    52 1   
    56    22    53 1   
    57    22    54 1   
    58    23    55 1   
    59    23    56 1   
    60    23    57 1   
    61    24    31 1   
    62    26    58 1   
    63    26    59 1   
@<TRIPOS>SUBSTRUCTURE
     1 LR4         1 TEMP              0 ****  ****    0 ROOT
