@<TRIPOS>MOLECULE
LR5
   19    19     1     0     0
SMALL
bcc


@<TRIPOS>ATOM
      1 C1          14.4250     2.9440    19.7830 ca         1 LR5      -0.123600
      2 C2          13.4020     3.8650    19.5920 ca         1 LR5      -0.098500
      3 C6          12.9400     1.1790    19.0880 ca         1 LR5      -0.088000
      4 C4          11.9210     2.1090    18.8990 ca         1 LR5      -0.178300
      5 C3          12.1520     3.4520    19.1540 ca         1 LR5      -0.088000
      6 N           16.1660     4.5920    20.0350 nt         1 LR5      -0.667000
      7 C           15.7800     3.3350    20.2910 c          1 LR5       0.679700
      8 O           16.4680     2.5340    20.9080 o          1 LR5      -0.594100
      9 C7          14.1780     1.5950    19.5380 ca         1 LR5      -0.098500
     10 F            9.6570     2.5800    18.4250 f          1 LR5      -0.232967
     11 F1          10.1310     0.6080    19.1430 f          1 LR5      -0.232967
     12 F2          10.6690     1.1790    17.1440 f          1 LR5      -0.232967
     13 H1          13.5490     4.9160    19.8040 ha         1 LR5       0.149500
     14 H2          12.7760     0.1270    18.8940 ha         1 LR5       0.152000
     15 H3          11.3740     4.1910    19.0260 ha         1 LR5       0.152000
     16 H4          17.0740     4.9050    20.3400 hn         1 LR5       0.317000
     17 H5          15.6670     5.1940    19.4040 hn         1 LR5       0.317000
     18 H6          14.9610     0.8650    19.6920 ha         1 LR5       0.149500
     19 C5          10.5920     1.6270    18.4050 c3         1 LR5       0.720200
@<TRIPOS>BOND
     1     1     2 ar  
     2     1     7 1   
     3     1     9 ar  
     4     2     5 ar  
     5     2    13 1   
     6     3     4 ar  
     7     3     9 ar  
     8     3    14 1   
     9     4     5 ar  
    10     4    19 1   
    11     5    15 1   
    12     6     7 1   
    13     6    16 1   
    14     6    17 1   
    15     7     8 2   
    16     9    18 1   
    17    10    19 1   
    18    11    19 1   
    19    12    19 1   
@<TRIPOS>SUBSTRUCTURE
     1 LR5         1 TEMP              0 ****  ****    0 ROOT
