@<TRIPOS>MOLECULE
LR5
   19    19     1     0     0
SMALL
No Charge or Current Charge


@<TRIPOS>ATOM
      1 C1          14.4880     2.9230    19.7180 ca         1 LR5      -0.123600
      2 C2          13.4920     3.8650    19.3680 ca         1 LR5      -0.080500
      3 C6          12.8930     1.1280    19.2230 ca         1 LR5      -0.070000
      4 C4          11.9000     2.0700    18.8840 ca         1 LR5      -0.178300
      5 C3          12.2170     3.4420    18.9540 ca         1 LR5      -0.070000
      6 N           16.1540     4.6630    20.2390 nt         1 LR5      -0.600000
      7 C           15.8720     3.3430    20.1690 c          1 LR5       0.612700
      8 O           16.7400     2.5390    20.4700 o          1 LR5      -0.594100
      9 C7          14.1680     1.5490    19.6370 ca         1 LR5      -0.080500
     10 F            9.5420     2.4970    18.7470 f          1 LR5      -0.111667
     11 F1          10.1510     0.4280    18.9680 f          1 LR5      -0.111667
     12 F2          10.4680     1.4550    17.0790 f          1 LR5      -0.111667
     13 H1          13.6900     4.9330    19.4090 ha         1 LR5       0.131500
     14 H2          12.6830     0.0610    19.1650 ha         1 LR5       0.134000
     15 H3          11.4750     4.1920    18.6850 ha         1 LR5       0.134000
     16 H4          17.0730     4.9530    20.5380 hn         1 LR5       0.317000
     17 H5          15.4560     5.3480    19.9960 hn         1 LR5       0.317000
     18 H6          14.9110     0.7980    19.8940 ha         1 LR5       0.131500
     19 C5          10.5110     1.6110    18.4210 c3         1 LR5       0.356300
@<TRIPOS>BOND
     1     1     2 ar  
     2     1     7 1   
     3     1     9 ar  
     4     2     5 ar  
     5     2    13 1   
     6     3     4 ar  
     7     3     9 ar  
     8     3    14 1   
     9     4     5 ar  
    10     4    19 1   
    11     5    15 1   
    12     6     7 1   
    13     6    16 1   
    14     6    17 1   
    15     7     8 2   
    16     9    18 1   
    17    10    19 1   
    18    11    19 1   
    19    12    19 1   
@<TRIPOS>SUBSTRUCTURE
     1 LR5         1 TEMP              0 ****  ****    0 ROOT
