@<TRIPOS>MOLECULE
LR7
   72    74     1     0     0
SMALL
No Charge or Current Charge


@<TRIPOS>ATOM
      1 O4         -12.8680    42.9050   -56.3080 o          1 LR7      -0.573000
      2 C4         -12.3430    43.0070   -55.2150 c          1 LR7       0.594200
      3 N3         -11.4340    43.9730   -54.9350 ns         1 LR7      -0.477500
      4 C2         -10.7780    44.1960   -53.7640 c          1 LR7       0.625000
      5 O2          -9.9720    45.1090   -53.6720 o          1 LR7      -0.574000
      6 C5         -12.6160    42.1200   -54.0900 cc         1 LR7      -0.417200
      7 C6         -11.9960    42.2780   -52.8710 cd         1 LR7       0.036600
      8 N1         -11.0830    43.3210   -52.7060 n          1 LR7      -0.302000
      9 C1B        -10.4140    43.5400   -51.3990 c5         1 LR7       0.335700
     10 C2B        -11.4430    44.2040   -50.4320 c5         1 LR7       0.129300
     11 O9         -11.6490    45.6100   -50.6320 oh         1 LR7      -0.705000
     12 C3B        -10.7010    43.9630   -49.0870 c5         1 LR7       0.097300
     13 O3B         -9.7140    44.9970   -48.8670 oh         1 LR7      -0.731000
     14 O4B        -10.1220    42.2910   -50.7540 os         1 LR7      -0.461000
     15 C4B        -10.0450    42.5440   -49.3280 c5         1 LR7       0.117300
     16 C5B        -10.6000    41.3080   -48.5480 c3         1 LR7       0.215600
     17 O5B        -12.0320    41.1710   -48.6540 os         1 LR7      -0.613400
     18 PA         -12.9760    41.4140   -47.3670 p5         1 LR7       1.506800
     19 O1A        -12.7490    42.7790   -46.8260 o          1 LR7      -0.856000
     20 O2A        -14.4030    41.1910   -47.7410 o          1 LR7      -0.856000
     21 O3A        -12.4410    40.2180   -46.4950 os         1 LR7      -0.718800
     22 PB         -12.2230    40.5060   -44.9610 p5         1 LR7       1.485800
     23 O1B        -13.2680    41.3720   -44.3500 o          1 LR7      -0.842000
     24 O2B        -12.1240    39.2160   -44.2200 o          1 LR7      -0.842000
     25 O1         -10.7710    41.1840   -45.0490 os         1 LR7      -0.649400
     26 C1         -10.3350    42.0630   -44.0080 c6         1 LR7       0.449300
     27 O5          -8.9390    41.7760   -43.7600 os         1 LR7      -0.468000
     28 C11         -8.0700    41.9790   -44.9100 c6         1 LR7       0.187300
     29 C12         -6.6370    41.5010   -44.5170 c3         1 LR7       0.161600
     30 O6          -5.7130    41.5190   -45.6240 oh         1 LR7      -0.728000
     31 C9          -8.1220    43.4680   -45.3990 c6         1 LR7       0.148300
     32 O8          -7.5660    44.4010   -44.4470 oh         1 LR7      -0.721000
     33 C3          -9.6100    43.8460   -45.6620 c6         1 LR7       0.123300
     34 O3          -9.7200    45.2160   -46.0990 oh         1 LR7      -0.707000
     35 C10        -10.4750    43.5810   -44.3910 c6         1 LR7       0.033700
     36 N2         -11.8730    44.0110   -44.5900 ns         1 LR7      -0.517900
     37 C7         -12.7090    44.5040   -43.6230 c          1 LR7       0.620100
     38 O7         -12.3100    44.7820   -42.5010 o          1 LR7      -0.671100
     39 C8         -14.1690    44.6660   -44.0430 c3         1 LR7      -0.171400
     40 C40        -14.5330    46.1510   -44.2790 c3         1 LR7      -0.051400
     41 C41        -16.0010    46.3520   -44.7180 c3         1 LR7      -0.014300
     42 C42        -16.3350    47.7650   -44.9400 c1         1 LR7      -0.093100
     43 C43        -16.5850    48.9360   -45.1120 c1         1 LR7      -0.318000
     44 H1         -11.2140    44.6040   -55.6890 hn         1 LR7       0.321500
     45 H2         -13.3350    41.3300   -54.2770 ha         1 LR7       0.227000
     46 H3         -12.1550    41.6460   -51.9950 h4         1 LR7       0.267000
     47 H4          -9.5050    44.1420   -51.5270 h2         1 LR7       0.103700
     48 H5         -12.3990    43.6610   -50.4490 h1         1 LR7       0.077700
     49 H6         -10.9230    46.0140   -50.0930 ho         1 LR7       0.512000
     50 H7         -11.4210    43.9580   -48.2660 h1         1 LR7       0.111700
     51 H8          -9.6200    45.1050   -47.8760 ho         1 LR7       0.522000
     52 H9          -8.9770    42.6050   -49.0740 h1         1 LR7       0.055700
     53 H10        -10.1130    40.4080   -48.9470 h1         1 LR7       0.047200
     54 H11        -10.2850    41.3870   -47.5030 h1         1 LR7       0.047200
     55 H14        -10.9030    41.8700   -43.0830 h2         1 LR7       0.088700
     56 H15         -8.4090    41.3270   -45.7280 h1         1 LR7       0.070700
     57 H16         -6.7190    40.4800   -44.1190 h1         1 LR7       0.033700
     58 H17         -6.2660    42.1380   -43.7020 h1         1 LR7       0.033700
     59 H18         -4.8370    41.2350   -45.2710 ho         1 LR7       0.488000
     60 H19         -7.5750    43.5380   -46.3510 h1         1 LR7       0.041700
     61 H20         -7.9170    45.2770   -44.7340 ho         1 LR7       0.504000
     62 H21         -9.9840    43.1920   -46.4570 h1         1 LR7       0.062700
     63 H22        -10.5130    45.5820   -45.6400 ho         1 LR7       0.470000
     64 H23        -10.0580    44.1650   -43.5580 h1         1 LR7       0.081700
     65 H24        -12.3400    43.6800   -45.4420 hn         1 LR7       0.402500
     66 H25        -14.3520    44.1100   -44.9690 hc         1 LR7       0.095200
     67 H26        -14.8030    44.2700   -43.2420 hc         1 LR7       0.095200
     68 H27        -13.8650    46.5650   -45.0470 hc         1 LR7       0.043700
     69 H28        -14.3490    46.7180   -43.3570 hc         1 LR7       0.043700
     70 H29        -16.1890    45.7940   -45.6440 hc         1 LR7       0.065200
     71 H30        -16.6740    45.9440   -43.9540 hc         1 LR7       0.065200
     72 H31        -16.7940    49.9770   -45.2640 ha         1 LR7       0.237000
@<TRIPOS>BOND
     1     1     2 2   
     2     2     3 1   
     3     2     6 1   
     4     3     4 1   
     5     3    44 1   
     6     4     5 2   
     7     4     8 1   
     8     6     7 2   
     9     6    45 1   
    10     7     8 1   
    11     7    46 1   
    12     8     9 1   
    13     9    10 1   
    14     9    14 1   
    15     9    47 1   
    16    10    11 1   
    17    10    12 1   
    18    10    48 1   
    19    11    49 1   
    20    12    13 1   
    21    12    15 1   
    22    12    50 1   
    23    13    51 1   
    24    14    15 1   
    25    15    16 1   
    26    15    52 1   
    27    16    17 1   
    28    16    53 1   
    29    16    54 1   
    30    17    18 1   
    31    18    19 1   
    32    18    20 1   
    33    18    21 1   
    34    21    22 1   
    35    22    23 1   
    36    22    24 1   
    37    22    25 1   
    38    25    26 1   
    39    26    27 1   
    40    26    35 1   
    41    26    55 1   
    42    27    28 1   
    43    28    29 1   
    44    28    31 1   
    45    28    56 1   
    46    29    30 1   
    47    29    57 1   
    48    29    58 1   
    49    30    59 1   
    50    31    32 1   
    51    31    33 1   
    52    31    60 1   
    53    32    61 1   
    54    33    34 1   
    55    33    35 1   
    56    33    62 1   
    57    34    63 1   
    58    35    36 1   
    59    35    64 1   
    60    36    37 1   
    61    36    65 1   
    62    37    38 2   
    63    37    39 1   
    64    39    40 1   
    65    39    66 1   
    66    39    67 1   
    67    40    41 1   
    68    40    68 1   
    69    40    69 1   
    70    41    42 1   
    71    41    70 1   
    72    41    71 1   
    73    42    43 3   
    74    43    72 1   
@<TRIPOS>SUBSTRUCTURE
     1 LR7         1 TEMP              0 ****  ****    0 ROOT
