@<TRIPOS>MOLECULE
LR7
   72    74     1     0     0
SMALL
abcg2


@<TRIPOS>ATOM
      1 O4         -13.2060    41.9230   -55.8860 o          1 LR7      -0.573000
      2 C4         -12.5820    42.2330   -54.8900 c          1 LR7       0.594200
      3 N3         -11.4710    43.0600   -54.9820 ns         1 LR7      -0.477500
      4 C2         -10.6640    43.5150   -53.9710 c          1 LR7       0.625000
      5 O2          -9.7050    44.2240   -54.1860 o          1 LR7      -0.574000
      6 C5         -12.8730    41.8170   -53.5390 cc         1 LR7      -0.417200
      7 C6         -12.1050    42.2570   -52.5310 cd         1 LR7       0.036600
      8 N1         -11.0410    43.0990   -52.7080 n          1 LR7      -0.302000
      9 C1B        -10.2790    43.5360   -51.5500 c5         1 LR7       0.335700
     10 C2B        -11.0880    44.3550   -50.5480 c5         1 LR7       0.129300
     11 O9         -11.1900    45.6680   -51.0000 oh         1 LR7      -0.705000
     12 C3B        -10.3040    44.1200   -49.2540 c5         1 LR7       0.097300
     13 O3B         -9.2320    45.0240   -49.1820 oh         1 LR7      -0.731000
     14 O4B         -9.8380    42.4110   -50.8520 os         1 LR7      -0.461000
     15 C4B         -9.8250    42.6660   -49.4430 c5         1 LR7       0.117300
     16 C5B        -10.6140    41.5960   -48.7190 c3         1 LR7       0.215600
     17 O5B        -11.9950    41.6220   -49.0230 os         1 LR7      -0.613400
     18 PA         -13.1260    41.9430   -47.8750 p5         1 LR7       1.506800
     19 O1A        -12.8600    43.2960   -47.2730 o          1 LR7      -0.856000
     20 O2A        -14.4380    41.6370   -48.5080 o          1 LR7      -0.856000
     21 O3A        -12.7700    40.7620   -46.7920 os         1 LR7      -0.718800
     22 PB         -12.4450    40.7930   -45.1800 p5         1 LR7       1.485800
     23 O1B        -13.4460    41.6130   -44.4340 o          1 LR7      -0.842000
     24 O2B        -12.1630    39.3780   -44.7970 o          1 LR7      -0.842000
     25 O1         -11.0140    41.6210   -45.2750 os         1 LR7      -0.649400
     26 C1         -10.4720    42.3410   -44.2050 c6         1 LR7       0.449300
     27 O5          -9.2340    41.8160   -43.8400 os         1 LR7      -0.468000
     28 C11         -8.2160    41.9050   -44.8250 c6         1 LR7       0.187300
     29 C12         -6.9960    41.2280   -44.2200 c3         1 LR7       0.161600
     30 O6          -5.9650    41.2540   -45.1770 oh         1 LR7      -0.728000
     31 C9          -7.9710    43.3490   -45.2540 c6         1 LR7       0.148300
     32 O8          -7.4310    44.0680   -44.1740 oh         1 LR7      -0.721000
     33 C3          -9.2990    43.9330   -45.7240 c6         1 LR7       0.123300
     34 O3          -9.0960    45.2730   -46.1260 oh         1 LR7      -0.707000
     35 C10        -10.3380    43.8140   -44.6140 c6         1 LR7       0.033700
     36 N2         -11.6020    44.3630   -45.0290 ns         1 LR7      -0.517900
     37 C7         -12.4170    45.0190   -44.1730 c          1 LR7       0.620100
     38 O7         -12.0720    45.3890   -43.0600 o          1 LR7      -0.671100
     39 C8         -13.8130    45.2510   -44.7120 c3         1 LR7      -0.171400
     40 C40        -14.6480    46.2050   -43.8760 c3         1 LR7      -0.051400
     41 C41        -16.0450    46.3640   -44.4820 c3         1 LR7      -0.014300
     42 C42        -16.8990    47.2470   -43.7000 c1         1 LR7      -0.093100
     43 C43        -17.5900    47.9760   -43.0380 c1         1 LR7      -0.318000
     44 H1         -11.2110    43.3700   -55.9100 hn         1 LR7       0.321500
     45 H2         -13.7030    41.1540   -53.3490 ha         1 LR7       0.227000
     46 H3         -12.2950    41.9490   -51.5120 h4         1 LR7       0.267000
     47 H4          -9.4450    44.1340   -51.9280 h2         1 LR7       0.103700
     48 H5         -12.0770    43.8970   -50.4140 h1         1 LR7       0.077700
     49 H6         -11.8120    46.1410   -50.4390 ho         1 LR7       0.512000
     50 H7         -10.9610    44.2090   -48.3840 h1         1 LR7       0.111700
     51 H8          -8.9890    45.1290   -48.2530 ho         1 LR7       0.522000
     52 H9          -8.7920    42.5840   -49.0830 h1         1 LR7       0.055700
     53 H10        -10.2180    40.6160   -49.0020 h1         1 LR7       0.047200
     54 H11        -10.4240    41.7080   -47.6490 h1         1 LR7       0.047200
     55 H14        -11.1030    42.2690   -43.3140 h2         1 LR7       0.088700
     56 H15         -8.5050    41.3470   -45.7260 h1         1 LR7       0.070700
     57 H16         -7.2720    40.2010   -43.9500 h1         1 LR7       0.033700
     58 H17         -6.7120    41.7410   -43.2940 h1         1 LR7       0.033700
     59 H18         -5.1740    40.8840   -44.7780 ho         1 LR7       0.488000
     60 H19         -7.2810    43.3340   -46.1090 h1         1 LR7       0.041700
     61 H20         -7.3450    44.9890   -44.4420 ho         1 LR7       0.504000
     62 H21         -9.6270    43.3370   -46.5840 h1         1 LR7       0.062700
     63 H22         -9.9490    45.7270   -46.0950 ho         1 LR7       0.470000
     64 H23         -9.9910    44.3740   -43.7430 h1         1 LR7       0.081700
     65 H24        -12.0410    43.9490   -45.8630 hn         1 LR7       0.402500
     66 H25        -13.7500    45.6020   -45.7450 hc         1 LR7       0.095200
     67 H26        -14.3000    44.2720   -44.7660 hc         1 LR7       0.095200
     68 H27        -14.1670    47.1830   -43.8160 hc         1 LR7       0.043700
     69 H28        -14.7400    45.8350   -42.8540 hc         1 LR7       0.043700
     70 H29        -15.9660    46.7520   -45.5020 hc         1 LR7       0.065200
     71 H30        -16.5260    45.3860   -44.5660 hc         1 LR7       0.065200
     72 H31        -18.2060    48.6210   -42.4540 ha         1 LR7       0.237000
@<TRIPOS>BOND
     1     1     2 2   
     2     2     3 1   
     3     2     6 1   
     4     3     4 1   
     5     3    44 1   
     6     4     5 2   
     7     4     8 1   
     8     6     7 2   
     9     6    45 1   
    10     7     8 1   
    11     7    46 1   
    12     8     9 1   
    13     9    10 1   
    14     9    14 1   
    15     9    47 1   
    16    10    11 1   
    17    10    12 1   
    18    10    48 1   
    19    11    49 1   
    20    12    13 1   
    21    12    15 1   
    22    12    50 1   
    23    13    51 1   
    24    14    15 1   
    25    15    16 1   
    26    15    52 1   
    27    16    17 1   
    28    16    53 1   
    29    16    54 1   
    30    17    18 1   
    31    18    19 1   
    32    18    20 1   
    33    18    21 1   
    34    21    22 1   
    35    22    23 1   
    36    22    24 1   
    37    22    25 1   
    38    25    26 1   
    39    26    27 1   
    40    26    35 1   
    41    26    55 1   
    42    27    28 1   
    43    28    29 1   
    44    28    31 1   
    45    28    56 1   
    46    29    30 1   
    47    29    57 1   
    48    29    58 1   
    49    30    59 1   
    50    31    32 1   
    51    31    33 1   
    52    31    60 1   
    53    32    61 1   
    54    33    34 1   
    55    33    35 1   
    56    33    62 1   
    57    34    63 1   
    58    35    36 1   
    59    35    64 1   
    60    36    37 1   
    61    36    65 1   
    62    37    38 2   
    63    37    39 1   
    64    39    40 1   
    65    39    66 1   
    66    39    67 1   
    67    40    41 1   
    68    40    68 1   
    69    40    69 1   
    70    41    42 1   
    71    41    70 1   
    72    41    71 1   
    73    42    43 3   
    74    43    72 1   
@<TRIPOS>SUBSTRUCTURE
     1 LR7         1 TEMP              0 ****  ****    0 ROOT
