@<TRIPOS>MOLECULE
LR8
   28    29     1     0     0
SMALL
bcc


@<TRIPOS>ATOM
      1 C1          14.3650     2.9840    19.7050 ca         1 LR8      -0.337900
      2 C2          14.1370     1.6190    19.5020 ca         1 LR8       0.001000
      3 C3          12.9110     1.1680    19.0840 ca         1 LR8      -0.330300
      4 C4          11.8710     2.1050    18.8830 ca         1 LR8       0.712200
      5 C5           9.6650     2.7310    18.0280 c6         1 LR8       0.182300
      6 C6           8.2550     2.3220    18.4030 c6         1 LR8       0.117400
      7 N           15.9580     4.7570    20.0820 nt         1 LR8      -0.674000
      8 C           15.7000     3.4400    20.1660 c          1 LR8       0.699700
      9 O           16.5190     2.6420    20.6090 o          1 LR8      -0.614100
     10 C7           8.8340     0.0830    18.4700 c6         1 LR8       0.117400
     11 C8          10.2800     0.3860    18.1160 c6         1 LR8       0.182300
     12 C9          13.2810     3.8200    19.4750 ca         1 LR8       0.487200
     13 N1          10.6170     1.7420    18.5060 nh         1 LR8      -0.777300
     14 N2          12.0900     3.4090    19.0800 nb         1 LR8      -0.767000
     15 O1           7.9430     1.0300    17.9320 os         1 LR8      -0.395600
     16 H1          14.9350     0.9060    19.6590 ha         1 LR8       0.157000
     17 H2          12.7690     0.1120    18.9140 ha         1 LR8       0.143000
     18 H3           9.7490     2.8330    16.9380 h1         1 LR8       0.060200
     19 H4           9.8900     3.6990    18.4650 h1         1 LR8       0.060200
     20 H5           7.5420     3.0170    17.9570 h1         1 LR8       0.055450
     21 H6           8.1410     2.3720    19.4950 h1         1 LR8       0.055450
     22 H7          16.8580     5.1030    20.3710 hn         1 LR8       0.312500
     23 H8          15.3590     5.4030    19.6000 hn         1 LR8       0.312500
     24 H9           8.7360     0.0400    19.5640 h1         1 LR8       0.055450
     25 H10          8.5620    -0.8940    18.0680 h1         1 LR8       0.055450
     26 H11         10.8970    -0.3370    18.6440 h1         1 LR8       0.060200
     27 H12         10.4480     0.2450    17.0410 h1         1 LR8       0.060200
     28 H13         13.3580     4.8920    19.6300 h4         1 LR8       0.009100
@<TRIPOS>BOND
     1     1     2 ar  
     2     1     8 1   
     3     1    12 ar  
     4     2     3 ar  
     5     2    16 1   
     6     3     4 ar  
     7     3    17 1   
     8     4    13 1   
     9     4    14 ar  
    10     5     6 1   
    11     5    13 1   
    12     5    18 1   
    13     5    19 1   
    14     6    15 1   
    15     6    20 1   
    16     6    21 1   
    17     7     8 1   
    18     7    22 1   
    19     7    23 1   
    20     8     9 2   
    21    10    11 1   
    22    10    15 1   
    23    10    24 1   
    24    10    25 1   
    25    11    13 1   
    26    11    26 1   
    27    11    27 1   
    28    12    14 ar  
    29    12    28 1   
@<TRIPOS>SUBSTRUCTURE
     1 LR8         1 TEMP              0 ****  ****    0 ROOT
