@<TRIPOS>MOLECULE
LR8
   28    29     1     0     0
SMALL
No Charge or Current Charge


@<TRIPOS>ATOM
      1 C1          14.4670     2.9740    19.5940 ca         1 LR8      -0.272600
      2 C2          14.2960     1.6380    19.1910 ca         1 LR8       0.019000
      3 C3          13.0060     1.2030    18.8600 ca         1 LR8      -0.247000
      4 C4          11.9310     2.1050    18.9390 ca         1 LR8       0.646900
      5 C5           9.6820     2.7110    17.9340 c6         1 LR8       0.182300
      6 C6           8.1770     2.3520    18.1170 c6         1 LR8       0.140600
      7 N           15.9470     4.7780    20.3410 nt         1 LR8      -0.607000
      8 C           15.8240     3.4900    19.9590 c          1 LR8       0.632700
      9 O           16.8180     2.7860    19.9220 o          1 LR8      -0.614100
     10 C7           8.6860     0.0610    18.6210 c6         1 LR8       0.140600
     11 C8          10.2170     0.3020    18.4620 c6         1 LR8       0.182300
     12 C9          13.3330     3.8010    19.6420 ca         1 LR8       0.421900
     13 N1          10.6020     1.7440    18.6320 nh         1 LR8      -0.777300
     14 N2          12.0920     3.3810    19.3220 nb         1 LR8      -0.767000
     15 O1           7.9320     0.9670    17.7850 os         1 LR8      -0.442000
     16 H1          15.1390     0.9510    19.1320 ha         1 LR8       0.139000
     17 H2          12.8570     0.1790    18.5370 ha         1 LR8       0.125000
     18 H3           9.9090     2.7270    16.8580 h1         1 LR8       0.060200
     19 H4           9.8190     3.7370    18.3040 h1         1 LR8       0.060200
     20 H5           7.5610     2.9930    17.4720 h1         1 LR8       0.055450
     21 H6           7.8770     2.5320    19.1600 h1         1 LR8       0.055450
     22 H7          16.8610     5.1280    20.5870 hn         1 LR8       0.312500
     23 H8          15.1420     5.3830    20.3800 hn         1 LR8       0.312500
     24 H9           8.3930     0.2100    19.6700 h1         1 LR8       0.055450
     25 H10          8.4420    -0.9740    18.3440 h1         1 LR8       0.055450
     26 H11         10.7280    -0.3220    19.2090 h1         1 LR8       0.060200
     27 H12         10.5280    -0.0540    17.4690 h1         1 LR8       0.060200
     28 H13         13.4030     4.8450    19.9450 h4         1 LR8       0.009100
@<TRIPOS>BOND
     1     1     2 ar  
     2     1     8 1   
     3     1    12 ar  
     4     2     3 ar  
     5     2    16 1   
     6     3     4 ar  
     7     3    17 1   
     8     4    13 1   
     9     4    14 ar  
    10     5     6 1   
    11     5    13 1   
    12     5    18 1   
    13     5    19 1   
    14     6    15 1   
    15     6    20 1   
    16     6    21 1   
    17     7     8 1   
    18     7    22 1   
    19     7    23 1   
    20     8     9 2   
    21    10    11 1   
    22    10    15 1   
    23    10    24 1   
    24    10    25 1   
    25    11    13 1   
    26    11    26 1   
    27    11    27 1   
    28    12    14 ar  
    29    12    28 1   
@<TRIPOS>SUBSTRUCTURE
     1 LR8         1 TEMP              0 ****  ****    0 ROOT
