@<TRIPOS>MOLECULE
LR9
   27    27     1     0     0
SMALL
abcg2


@<TRIPOS>ATOM
      1 N1          66.5490     3.5190    82.9600 n          1 LR9      -0.400800
      2 C4          66.1610     2.4270    82.2690 c          1 LR9       0.605700
      3 C5          64.7190     2.3170    81.8780 ca         1 LR9      -0.097600
      4 C6          63.7230     2.2570    82.8480 ca         1 LR9      -0.134000
      5 C7          62.4100     2.0550    82.4470 ca         1 LR9      -0.076000
      6 C8          62.0850     1.9240    81.1070 ca         1 LR9      -0.169000
      7 C10         64.4060     2.1670    80.5340 ca         1 LR9      -0.144000
      8 C1          66.2870     5.7330    81.8760 c3         1 LR9      -0.120100
      9 C2          65.8130     4.7760    82.9590 c3         1 LR9       0.100000
     10 C3          67.9300     3.5860    83.3980 c3         1 LR9       0.082300
     11 O1          66.9330     1.5180    81.9910 o          1 LR9      -0.589100
     12 C9          63.0810     1.9810    80.1240 ca         1 LR9       0.290000
     13 N2          62.7740     1.7980    78.7950 nv         1 LR9      -1.074000
     14 H1          63.9670     2.3640    83.8980 ha         1 LR9       0.121000
     15 H2          61.6230     2.0010    83.1890 ha         1 LR9       0.113000
     16 H3          61.0520     1.7750    80.8130 ha         1 LR9       0.112000
     17 H4          65.1940     2.2020    79.7900 ha         1 LR9       0.123000
     18 H5          65.7220     6.6640    81.9270 hc         1 LR9       0.041367
     19 H6          67.3440     5.9810    81.9830 hc         1 LR9       0.041367
     20 H7          66.1370     5.3020    80.8850 hc         1 LR9       0.041367
     21 H8          65.9260     5.2320    83.9430 h1         1 LR9       0.055200
     22 H9          64.7520     4.5750    82.8300 h1         1 LR9       0.055200
     23 H10         68.0250     4.3810    84.1360 h1         1 LR9       0.041033
     24 H11         68.2310     2.6520    83.8680 h1         1 LR9       0.041033
     25 H12         68.6220     3.7960    82.5800 h1         1 LR9       0.041033
     26 H13         61.8230     1.9990    78.5300 hn         1 LR9       0.450000
     27 H14         63.4360     2.1720    78.1330 hn         1 LR9       0.450000
@<TRIPOS>BOND
     1     1     2 1   
     2     1     9 1   
     3     1    10 1   
     4     2     3 1   
     5     2    11 2   
     6     3     4 ar  
     7     3     7 ar  
     8     4     5 ar  
     9     4    14 1   
    10     5     6 ar  
    11     5    15 1   
    12     6    12 ar  
    13     6    16 1   
    14     7    12 ar  
    15     7    17 1   
    16     8     9 1   
    17     8    18 1   
    18     8    19 1   
    19     8    20 1   
    20     9    21 1   
    21     9    22 1   
    22    10    23 1   
    23    10    24 1   
    24    10    25 1   
    25    12    13 1   
    26    13    26 1   
    27    13    27 1   
@<TRIPOS>SUBSTRUCTURE
     1 LR9         1 TEMP              0 ****  ****    0 ROOT
