@<TRIPOS>MOLECULE
LR9
   27    27     1     0     0
SMALL
No Charge or Current Charge


@<TRIPOS>ATOM
      1 N1          66.5710     3.5520    82.8700 n          1 LR9      -0.400800
      2 C4          66.1810     2.6010    81.8940 c          1 LR9       0.605700
      3 C5          64.7030     2.3790    81.6230 ca         1 LR9      -0.097600
      4 C6          63.7260     2.5340    82.6350 ca         1 LR9      -0.134000
      5 C7          62.3680     2.2950    82.3620 ca         1 LR9      -0.076000
      6 C8          61.9720     1.8830    81.0800 ca         1 LR9      -0.169000
      7 C10         64.2850     1.9390    80.3460 ca         1 LR9      -0.144000
      8 C1          66.5760     6.0470    82.4040 c3         1 LR9      -0.120100
      9 C2          65.8400     4.8390    83.0180 c3         1 LR9       0.100000
     10 C3          67.9570     3.5230    83.3920 c3         1 LR9       0.082300
     11 O1          67.0220     1.8980    81.3430 o          1 LR9      -0.589100
     12 C9          62.9290     1.7010    80.0730 ca         1 LR9       0.290000
     13 N2          62.5390     1.2880    78.8270 nv         1 LR9      -1.074000
     14 H1          64.0170     2.8250    83.6420 ha         1 LR9       0.121000
     15 H2          61.6260     2.4210    83.1470 ha         1 LR9       0.113000
     16 H3          60.9210     1.6980    80.8750 ha         1 LR9       0.112000
     17 H4          65.0220     1.7910    79.5600 ha         1 LR9       0.123000
     18 H5          65.9590     6.9490    82.4940 hc         1 LR9       0.041367
     19 H6          67.5270     6.2360    82.9150 hc         1 LR9       0.041367
     20 H7          66.7780     5.8740    81.3410 hc         1 LR9       0.041367
     21 H8          65.6710     5.0250    84.0870 h1         1 LR9       0.055200
     22 H9          64.8580     4.7820    82.5370 h1         1 LR9       0.055200
     23 H10         68.0440     4.1740    84.2710 h1         1 LR9       0.041033
     24 H11         68.2230     2.5000    83.6870 h1         1 LR9       0.041033
     25 H12         68.6540     3.8670    82.6170 h1         1 LR9       0.041033
     26 H13         61.5490     1.2470    78.5930 hn         1 LR9       0.450000
     27 H14         63.2060     1.2860    78.0570 hn         1 LR9       0.450000
@<TRIPOS>BOND
     1     1     2 1   
     2     1     9 1   
     3     1    10 1   
     4     2     3 1   
     5     2    11 2   
     6     3     4 ar  
     7     3     7 ar  
     8     4     5 ar  
     9     4    14 1   
    10     5     6 ar  
    11     5    15 1   
    12     6    12 ar  
    13     6    16 1   
    14     7    12 ar  
    15     7    17 1   
    16     8     9 1   
    17     8    18 1   
    18     8    19 1   
    19     8    20 1   
    20     9    21 1   
    21     9    22 1   
    22    10    23 1   
    23    10    24 1   
    24    10    25 1   
    25    12    13 1   
    26    13    26 1   
    27    13    27 1   
@<TRIPOS>SUBSTRUCTURE
     1 LR9         1 TEMP              0 ****  ****    0 ROOT
