@<TRIPOS>MOLECULE
LRA
   32    34     1     0     0
SMALL
No Charge or Current Charge


@<TRIPOS>ATOM
      1 CAT         16.3320    16.6330    45.4410 ca         1 LRA      -0.177000
      2 CAS         17.3880    16.4770    44.5270 ca         1 LRA       0.142100
      3 OAU         18.4880    15.7480    44.8670 oh         1 LRA      -0.530100
      4 CAR         17.3160    17.0720    43.2600 ca         1 LRA      -0.129000
      5 CAQ         16.1850    17.8230    42.9020 ca         1 LRA      -0.075000
      6 CAP         15.1280    17.9790    43.8160 ca         1 LRA      -0.128000
      7 CAO         15.1890    17.3910    45.0970 ca         1 LRA      -0.059300
      8 CAL         14.0250    17.5820    46.0790 c5         1 LRA       0.255800
      9 OAK         13.5150    16.2900    46.5110 os         1 LRA      -0.396100
     10 CAJ         13.7780    16.1490    47.8420 c          1 LRA       0.624300
     11 OAN         13.4810    15.1780    48.5250 o          1 LRA      -0.486000
     12 CAI         14.4890    17.3790    48.2960 ce         1 LRA       0.001900
     13 OAM         14.8770    17.5200    49.6040 oh         1 LRA      -0.498100
     14 CAH         14.6710    18.2850    47.3080 cf         1 LRA      -0.118400
     15 CAF         15.3290    19.6130    47.2570 ca         1 LRA      -0.013800
     16 CAE         15.0050    20.5310    46.2340 ca         1 LRA      -0.091000
     17 CAD         15.6320    21.7880    46.1730 ca         1 LRA      -0.086500
     18 CAC         16.5910    22.1410    47.1340 ca         1 LRA      -0.012900
     19 BrAG        17.4450    23.8500    47.0500 br         1 LRA      -0.093100
     20 CAB         16.9250    21.2390    48.1550 ca         1 LRA      -0.086500
     21 CAA         16.2970    19.9820    48.2150 ca         1 LRA      -0.091000
     22 H1          16.3970    16.1680    46.4210 ha         1 LRA       0.117000
     23 H2          18.3680    15.4110    45.7810 ho         1 LRA       0.468000
     24 H3          18.1340    16.9500    42.5540 ha         1 LRA       0.132000
     25 H4          16.1260    18.2830    41.9180 ha         1 LRA       0.120000
     26 H5          14.2570    18.5610    43.5240 ha         1 LRA       0.116000
     27 H6          13.2040    18.1690    45.6450 h1         1 LRA       0.091700
     28 H7          14.5950    16.7050    50.0790 ho         1 LRA       0.491000
     29 H8          14.2600    20.2830    45.4840 ha         1 LRA       0.123000
     30 H9          15.3710    22.4870    45.3810 ha         1 LRA       0.131500
     31 H10         17.6720    21.5090    48.8980 ha         1 LRA       0.131500
     32 H11         16.5830    19.2940    49.0040 ha         1 LRA       0.123000
@<TRIPOS>BOND
     1     1     2 ar  
     2     1     7 ar  
     3     1    22 1   
     4     2     3 1   
     5     2     4 ar  
     6     3    23 1   
     7     4     5 ar  
     8     4    24 1   
     9     5     6 ar  
    10     5    25 1   
    11     6     7 ar  
    12     6    26 1   
    13     7     8 1   
    14     8     9 1   
    15     8    14 1   
    16     8    27 1   
    17     9    10 1   
    18    10    11 2   
    19    10    12 1   
    20    12    13 1   
    21    12    14 2   
    22    13    28 1   
    23    14    15 1   
    24    15    16 ar  
    25    15    21 ar  
    26    16    17 ar  
    27    16    29 1   
    28    17    18 ar  
    29    17    30 1   
    30    18    19 1   
    31    18    20 ar  
    32    20    21 ar  
    33    20    31 1   
    34    21    32 1   
@<TRIPOS>SUBSTRUCTURE
     1 LRA         1 TEMP              0 ****  ****    0 ROOT
