@<TRIPOS>MOLECULE
LRA
   32    34     1     0     0
SMALL
bcc


@<TRIPOS>ATOM
      1 CAT         16.4280    16.7410    45.3730 ca         1 LRA      -0.195000
      2 CAS         17.4010    16.5200    44.4070 ca         1 LRA       0.142100
      3 OAU         18.5570    15.8840    44.6730 oh         1 LRA      -0.491100
      4 CAR         17.1970    16.9690    43.1000 ca         1 LRA      -0.147000
      5 CAQ         16.0230    17.6230    42.7770 ca         1 LRA      -0.093000
      6 CAP         15.0410    17.8390    43.7380 ca         1 LRA      -0.146000
      7 CAO         15.2490    17.4000    45.0380 ca         1 LRA      -0.059300
      8 CAL         14.1940    17.6360    46.0890 c5         1 LRA       0.232600
      9 OAK         13.6550    16.3810    46.5250 os         1 LRA      -0.372900
     10 CAJ         13.7980    16.2500    47.8420 c          1 LRA       0.699800
     11 OAN         13.4220    15.2940    48.4660 o          1 LRA      -0.561500
     12 CAI         14.4720    17.4530    48.3600 ce         1 LRA       0.001900
     13 OAM         14.7390    17.5990    49.6530 oh         1 LRA      -0.459100
     14 CAH         14.7130    18.2920    47.3430 cf         1 LRA      -0.118400
     15 CAF         15.3520    19.5990    47.3340 ca         1 LRA      -0.013800
     16 CAE         15.1660    20.4670    46.2540 ca         1 LRA      -0.109000
     17 CAD         15.7760    21.7090    46.2140 ca         1 LRA      -0.104500
     18 CAC         16.5930    22.0960    47.2660 ca         1 LRA      -0.012900
     19 BRAG        17.4400    23.7800    47.2170 br         1 LRA      -0.093100
     20 CAB         16.7970    21.2580    48.3520 ca         1 LRA      -0.104500
     21 CAA         16.1780    20.0190    48.3810 ca         1 LRA      -0.109000
     22 H1          16.5980    16.4060    46.3920 ha         1 LRA       0.135000
     23 H2          18.5920    15.6160    45.5980 ho         1 LRA       0.429000
     24 H3          17.9610    16.8020    42.3510 ha         1 LRA       0.150000
     25 H4          15.8700    17.9680    41.7630 ha         1 LRA       0.138000
     26 H5          14.1240    18.3500    43.4740 ha         1 LRA       0.134000
     27 H6          13.3650    18.2060    45.6580 h1         1 LRA       0.091700
     28 H7          14.4160    16.8350    50.1510 ho         1 LRA       0.452000
     29 H8          14.5280    20.1910    45.4250 ha         1 LRA       0.141000
     30 H9          15.6100    22.3610    45.3670 ha         1 LRA       0.149500
     31 H10         17.4360    21.5530    49.1730 ha         1 LRA       0.149500
     32 H11         16.3640    19.3750    49.2290 ha         1 LRA       0.141000
@<TRIPOS>BOND
     1     1     2 ar  
     2     1     7 ar  
     3     1    22 1   
     4     2     3 1   
     5     2     4 ar  
     6     3    23 1   
     7     4     5 ar  
     8     4    24 1   
     9     5     6 ar  
    10     5    25 1   
    11     6     7 ar  
    12     6    26 1   
    13     7     8 1   
    14     8     9 1   
    15     8    14 1   
    16     8    27 1   
    17     9    10 1   
    18    10    11 2   
    19    10    12 1   
    20    12    13 1   
    21    12    14 2   
    22    13    28 1   
    23    14    15 1   
    24    15    16 ar  
    25    15    21 ar  
    26    16    17 ar  
    27    16    29 1   
    28    17    18 ar  
    29    17    30 1   
    30    18    19 1   
    31    18    20 ar  
    32    20    21 ar  
    33    20    31 1   
    34    21    32 1   
@<TRIPOS>SUBSTRUCTURE
     1 LRA         1 TEMP              0 ****  ****    0 ROOT
