@<TRIPOS>MOLECULE
LRC
   30    31     1     0     0
SMALL
abcg2


@<TRIPOS>ATOM
      1 N1           7.6730    -0.4610    20.6440 ns         1 LRC      -0.165000
      2 C4           7.3700     0.0240    18.2810 ca         1 LRC       0.348900
      3 C5           6.9500     0.1450    19.6020 ca         1 LRC      -0.096000
      4 C6           8.9990    -0.2740    20.8640 c          1 LRC       0.601100
      5 C7           9.5180    -1.0080    22.0910 c3         1 LRC      -0.112100
      6 C8          10.9640    -0.7250    22.3440 ca         1 LRC      -0.115300
      7 C10         13.5750    -0.1070    22.8640 ca         1 LRC       0.354900
      8 C9          11.3600     0.1970    23.3050 ca         1 LRC       0.349900
      9 N            6.7360     0.5790    17.2590 nb         1 LRC      -0.652000
     10 C12         11.9600    -1.3610    21.6150 ca         1 LRC      -0.047000
     11 N2          12.6270     0.4990    23.5600 nb         1 LRC      -0.656000
     12 C1           5.7870     0.8660    19.8820 ca         1 LRC      -0.063300
     13 C11         13.2770    -1.0440    21.8840 ca         1 LRC       0.062000
     14 C            5.2860     1.0280    21.2820 c3         1 LRC      -0.051800
     15 C2           5.1220     1.4270    18.7980 ca         1 LRC      -0.152000
     16 O            9.7080     0.4050    20.1500 o          1 LRC      -0.558100
     17 C3           5.6310     1.2680    17.5200 ca         1 LRC       0.329900
     18 CL          14.5590    -1.8040    21.0120 cl         1 LRC      -0.182000
     19 H1           7.1460    -0.9660    21.3420 hn         1 LRC       0.153000
     20 H2           8.2560    -0.5550    18.0470 h4         1 LRC       0.033100
     21 H3           8.9150    -0.7260    22.9590 hc         1 LRC       0.068700
     22 H4           9.3580    -2.0800    21.9450 hc         1 LRC       0.068700
     23 H5          14.6040     0.1520    23.0850 h4         1 LRC       0.035100
     24 H6          10.6120     0.7130    23.8990 h4         1 LRC       0.020100
     25 H7          11.7100    -2.0950    20.8580 ha         1 LRC       0.135000
     26 H8           4.9590     0.0730    21.7000 hc         1 LRC       0.047033
     27 H9           6.0670     1.4140    21.9380 hc         1 LRC       0.047033
     28 H10          4.4390     1.7100    21.3180 hc         1 LRC       0.047033
     29 H11          4.2150     1.9980    18.9510 ha         1 LRC       0.123000
     30 H12          5.1220     1.7120    16.6720 h4         1 LRC       0.022100
@<TRIPOS>BOND
     1     1     3 1   
     2     1     4 1   
     3     1    19 1   
     4     2     3 ar  
     5     2     9 ar  
     6     2    20 1   
     7     3    12 ar  
     8     4     5 1   
     9     4    16 2   
    10     5     6 1   
    11     5    21 1   
    12     5    22 1   
    13     6     8 ar  
    14     6    10 ar  
    15     7    11 ar  
    16     7    13 ar  
    17     7    23 1   
    18     8    11 ar  
    19     8    24 1   
    20     9    17 ar  
    21    10    13 ar  
    22    10    25 1   
    23    12    14 1   
    24    12    15 ar  
    25    13    18 1   
    26    14    26 1   
    27    14    27 1   
    28    14    28 1   
    29    15    17 ar  
    30    15    29 1   
    31    17    30 1   
@<TRIPOS>SUBSTRUCTURE
     1 LRC         1 TEMP              0 ****  ****    0 ROOT
