@<TRIPOS>MOLECULE
LRC
   30    31     1     0     0
SMALL
No Charge or Current Charge


@<TRIPOS>ATOM
      1 N1           7.9130    -0.4730    20.4920 ns         1 LRC      -0.165000
      2 C4           7.2950     0.1680    18.1530 ca         1 LRC       0.348900
      3 C5           7.1010     0.2380    19.5570 ca         1 LRC      -0.096000
      4 C6           9.0630    -1.2360    20.3340 c          1 LRC       0.601100
      5 C7           9.6140    -1.8300    21.6380 c3         1 LRC      -0.112100
      6 C8          10.8180    -1.0300    22.1350 ca         1 LRC      -0.115300
      7 C10         12.9290     0.4830    23.0650 ca         1 LRC       0.354900
      8 C9          10.6420     0.1230    22.9320 ca         1 LRC       0.349900
      9 N            6.5270     0.8370    17.2590 nb         1 LRC      -0.652000
     10 C12         12.1290    -1.4220    21.7990 ca         1 LRC      -0.047000
     11 N2          11.6700     0.8730    23.3930 nb         1 LRC      -0.656000
     12 C1           6.0470     1.0450    20.0440 ca         1 LRC      -0.063300
     13 C11         13.2020    -0.6510    22.2740 ca         1 LRC       0.062000
     14 C            5.7620     1.1800    21.5370 c3         1 LRC      -0.051800
     15 C2           5.2560     1.7360    19.1100 ca         1 LRC      -0.152000
     16 O            9.6240    -1.4160    19.2610 o          1 LRC      -0.558100
     17 C3           5.5270     1.6070    17.7390 ca         1 LRC       0.329900
     18 Cl          14.8610    -1.1010    21.8810 cl         1 LRC      -0.182000
     19 H1           7.5880    -0.4070    21.4480 hn         1 LRC       0.153000
     20 H2           8.0760    -0.4430    17.7100 h4         1 LRC       0.033100
     21 H3           8.8340    -1.8190    22.4090 hc         1 LRC       0.068700
     22 H4           9.9130    -2.8680    21.4470 hc         1 LRC       0.068700
     23 H5          13.7410     1.1000    23.4460 h4         1 LRC       0.035100
     24 H6           9.6430     0.4590    23.2080 h4         1 LRC       0.020100
     25 H7          12.3140    -2.3000    21.1840 ha         1 LRC       0.135000
     26 H8           5.5050     0.2090    21.9790 hc         1 LRC       0.047033
     27 H9           6.6330     1.5770    22.0720 hc         1 LRC       0.047033
     28 H10          4.9220     1.8590    21.7300 hc         1 LRC       0.047033
     29 H11          4.4350     2.3700    19.4330 ha         1 LRC       0.123000
     30 H12          4.9230     2.1350    17.0020 h4         1 LRC       0.022100
@<TRIPOS>BOND
     1     1     3 1   
     2     1     4 1   
     3     1    19 1   
     4     2     3 ar  
     5     2     9 ar  
     6     2    20 1   
     7     3    12 ar  
     8     4     5 1   
     9     4    16 2   
    10     5     6 1   
    11     5    21 1   
    12     5    22 1   
    13     6     8 ar  
    14     6    10 ar  
    15     7    11 ar  
    16     7    13 ar  
    17     7    23 1   
    18     8    11 ar  
    19     8    24 1   
    20     9    17 ar  
    21    10    13 ar  
    22    10    25 1   
    23    12    14 1   
    24    12    15 ar  
    25    13    18 1   
    26    14    26 1   
    27    14    27 1   
    28    14    28 1   
    29    15    17 ar  
    30    15    29 1   
    31    17    30 1   
@<TRIPOS>SUBSTRUCTURE
     1 LRC         1 TEMP              0 ****  ****    0 ROOT
