@<TRIPOS>MOLECULE
LRD
   38    40     1     0     0
SMALL
No Charge or Current Charge


@<TRIPOS>ATOM
      1 OBL          1.0570    -4.1110    -1.9550 o          1 LRD      -0.686533
      2 SBA          0.4340    -2.8060    -1.6860 s6         1 LRD       1.256100
      3 OBJ          1.2540    -1.6300    -2.0060 o          1 LRD      -0.686533
      4 OBK         -0.9900    -2.7050    -2.0350 o          1 LRD      -0.686533
      5 CAW          0.3620    -2.7730     0.1820 ca         1 LRD      -0.194500
      6 CAV          0.3550    -4.0100     0.8700 ca         1 LRD      -0.030000
      7 CAU          0.3270    -4.0610     2.2720 ca         1 LRD      -0.135000
      8 CAZ          0.3040    -2.8760     3.0170 ca         1 LRD      -0.105000
      9 CAY          0.2970    -1.6410     2.3560 ca         1 LRD      -0.136000
     10 CAX          0.3130    -1.5680     0.9470 ca         1 LRD      -0.015800
     11 CAS          0.2720    -0.2030     0.3350 ce         1 LRD       0.145600
     12 CBE          1.2250     0.7450     0.6390 cd         1 LRD      -0.106000
     13 CBF          0.8570     1.8680     1.4650 cd         1 LRD      -0.100000
     14 CBG          1.8060     2.8210     1.7750 cc         1 LRD      -0.030200
     15 ClB          1.3950     4.1950     2.7720 cl         1 LRD      -0.200000
     16 CBB          3.2060     2.7300     1.2860 c          1 LRD       0.583500
     17 OBH          4.0700     3.5600     1.5440 o          1 LRD      -0.547100
     18 CBC          3.5020     1.5570     0.4550 cc         1 LRD      -0.326200
     19 CBD          2.5660     0.5960     0.1350 cd         1 LRD      -0.058000
     20 CAM         -0.9700     0.1490    -0.4210 ca         1 LRD      -0.075800
     21 CAN         -2.2090    -0.4610    -0.1200 ca         1 LRD      -0.028000
     22 CAO         -3.3690    -0.1020    -0.8280 ca         1 LRD       0.006000
     23 ClA         -4.9020    -0.8790    -0.4290 cl         1 LRD      -0.233000
     24 CAR         -0.9180     1.1310    -1.4330 ca         1 LRD       0.005000
     25 CAQ         -2.0790     1.4890    -2.1400 ca         1 LRD      -0.155000
     26 CAP         -3.3040     0.8740    -1.8410 ca         1 LRD       0.162100
     27 O1          -4.4240     1.2330    -2.5340 oh         1 LRD      -0.533100
     28 H1           0.3740    -4.9460     0.3160 ha         1 LRD       0.141000
     29 H2           0.3260    -5.0220     2.7810 ha         1 LRD       0.099000
     30 H3           0.2850    -2.9140     4.1040 ha         1 LRD       0.096000
     31 H4           0.2670    -0.7260     2.9440 ha         1 LRD       0.101000
     32 H6          -0.1570     1.9690     1.8420 ha         1 LRD       0.190000
     33 H8           4.5240     1.4910     0.1010 ha         1 LRD       0.196000
     34 H9           2.8360    -0.2580    -0.4840 ha         1 LRD       0.211000
     35 H10         -2.2800    -1.2110     0.6630 ha         1 LRD       0.133000
     36 H11          0.0260     1.6130    -1.6780 ha         1 LRD       0.141000
     37 H12         -2.0270     2.2440    -2.9200 ha         1 LRD       0.128000
     38 H13         -5.1700     0.6980    -2.1860 ho         1 LRD       0.473000
@<TRIPOS>BOND
     1     1     2 1   
     2     2     3 1   
     3     2     4 1   
     4     2     5 1   
     5     5     6 ar  
     6     5    10 ar  
     7     6     7 ar  
     8     6    28 1   
     9     7     8 ar  
    10     7    29 1   
    11     8     9 ar  
    12     8    30 1   
    13     9    10 ar  
    14     9    31 1   
    15    10    11 1   
    16    11    12 2   
    17    11    20 1   
    18    12    13 1   
    19    12    19 1   
    20    13    14 2   
    21    13    32 1   
    22    14    15 1   
    23    14    16 1   
    24    16    17 2   
    25    16    18 1   
    26    18    19 2   
    27    18    33 1   
    28    19    34 1   
    29    20    21 ar  
    30    20    24 ar  
    31    21    22 ar  
    32    21    35 1   
    33    22    23 1   
    34    22    26 ar  
    35    24    25 ar  
    36    24    36 1   
    37    25    26 ar  
    38    25    37 1   
    39    26    27 1   
    40    27    38 1   
@<TRIPOS>SUBSTRUCTURE
     1 LRD         1 TEMP              0 ****  ****    0 ROOT
