@<TRIPOS>MOLECULE
LRD
   38    40     1     0     0
SMALL
abcg2


@<TRIPOS>ATOM
      1 OBL          1.1320    -3.7310    -2.2760 o          1 LRD      -0.686533
      2 SBA          1.1770    -2.3970    -1.6550 s6         1 LRD       1.256100
      3 OBJ          2.5410    -1.8580    -1.5290 o          1 LRD      -0.686533
      4 OBK          0.2230    -1.4440    -2.2400 o          1 LRD      -0.686533
      5 CAW          0.6430    -2.6480     0.0420 ca         1 LRD      -0.194500
      6 CAV          0.7080    -3.9250     0.5810 ca         1 LRD      -0.030000
      7 CAU          0.4130    -4.1440     1.9190 ca         1 LRD      -0.135000
      8 CAZ          0.0730    -3.0760     2.7340 ca         1 LRD      -0.105000
      9 CAY          0.0160    -1.7960     2.2010 ca         1 LRD      -0.136000
     10 CAX          0.2820    -1.5690     0.8520 ca         1 LRD      -0.015800
     11 CAS          0.1280    -0.1740     0.3610 ce         1 LRD       0.145600
     12 CBE          1.1310     0.7310     0.5870 cd         1 LRD      -0.106000
     13 CBF          0.9350     2.1560     0.4670 cd         1 LRD      -0.100000
     14 CBG          1.9450     3.0170     0.6800 cc         1 LRD      -0.030200
     15 CLB          1.6930     4.7210     0.5840 cl         1 LRD      -0.200000
     16 CBB          3.3020     2.5880     1.0420 c          1 LRD       0.583500
     17 OBH          4.2120     3.3840     1.2180 o          1 LRD      -0.547100
     18 CBC          3.4590     1.1490     1.1940 cc         1 LRD      -0.326200
     19 CBD          2.4460     0.2870     0.9900 cd         1 LRD      -0.058000
     20 CAM         -1.1640     0.1720    -0.2280 ca         1 LRD      -0.075800
     21 CAN         -2.3360    -0.4160     0.2470 ca         1 LRD      -0.028000
     22 CAO         -3.5580    -0.0880    -0.3040 ca         1 LRD       0.006000
     23 CLA         -5.0070    -0.8070     0.3230 cl         1 LRD      -0.233000
     24 CAR         -1.2660     1.0550    -1.3110 ca         1 LRD       0.005000
     25 CAQ         -2.4860     1.3710    -1.8660 ca         1 LRD      -0.155000
     26 CAP         -3.6630     0.8110    -1.3670 ca         1 LRD       0.162100
     27 O1          -4.8180     1.1530    -1.9380 oh         1 LRD      -0.533100
     28 H1           0.9900    -4.7590    -0.0470 ha         1 LRD       0.141000
     29 H2           0.4590    -5.1470     2.3230 ha         1 LRD       0.099000
     30 H3          -0.1470    -3.2320     3.7810 ha         1 LRD       0.096000
     31 H4          -0.2500    -0.9600     2.8360 ha         1 LRD       0.101000
     32 H6          -0.0540     2.5420     0.2630 ha         1 LRD       0.190000
     33 H8           4.4410     0.7870     1.4750 ha         1 LRD       0.196000
     34 H9           2.6230    -0.7720     1.1020 ha         1 LRD       0.211000
     35 H10         -2.3050    -1.1200     1.0670 ha         1 LRD       0.133000
     36 H11         -0.3720     1.4670    -1.7570 ha         1 LRD       0.141000
     37 H12         -2.5440     2.0440    -2.7110 ha         1 LRD       0.128000
     38 H13         -5.5640     0.6870    -1.5360 ho         1 LRD       0.473000
@<TRIPOS>BOND
     1     1     2 1   
     2     2     3 1   
     3     2     4 1   
     4     2     5 1   
     5     5     6 ar  
     6     5    10 ar  
     7     6     7 ar  
     8     6    28 1   
     9     7     8 ar  
    10     7    29 1   
    11     8     9 ar  
    12     8    30 1   
    13     9    10 ar  
    14     9    31 1   
    15    10    11 1   
    16    11    12 2   
    17    11    20 1   
    18    12    13 1   
    19    12    19 1   
    20    13    14 2   
    21    13    32 1   
    22    14    15 1   
    23    14    16 1   
    24    16    17 2   
    25    16    18 1   
    26    18    19 2   
    27    18    33 1   
    28    19    34 1   
    29    20    21 ar  
    30    20    24 ar  
    31    21    22 ar  
    32    21    35 1   
    33    22    23 1   
    34    22    26 ar  
    35    24    25 ar  
    36    24    36 1   
    37    25    26 ar  
    38    25    37 1   
    39    26    27 1   
    40    27    38 1   
@<TRIPOS>SUBSTRUCTURE
     1 LRD         1 TEMP              0 ****  ****    0 ROOT
