@<TRIPOS>MOLECULE
LRG
   41    43     1     0     0
SMALL
abcg2


@<TRIPOS>ATOM
      1 CAI         -3.9740    -1.4300     1.1650 ca         1 LRG      -0.106000
      2 CAE         -4.2530    -2.7880     1.0870 ca         1 LRG      -0.120500
      3 CAC         -4.5650    -3.3680    -0.1360 ca         1 LRG      -0.133000
      4 CAF         -4.6000    -2.5790    -1.2780 ca         1 LRG      -0.120500
      5 CAJ         -4.3240    -1.2210    -1.1940 ca         1 LRG      -0.106000
      6 CAT         -4.0080    -0.6280     0.0270 ca         1 LRG      -0.050300
      7 CAQ         -3.6820     0.8380     0.0970 c3         1 LRG      -0.026100
      8 CAX         -2.2350     1.1350    -0.2940 c3         1 LRG       0.022300
      9 CAS         -1.9730     2.6600    -0.2480 c          1 LRG       0.702000
     10 OAB         -2.4830     3.2950    -1.1910 o          1 LRG      -0.707000
     11 OAA         -1.3270     3.1020     0.7130 o          1 LRG      -0.707000
     12 OAR         -1.4220     0.4100     0.6100 os         1 LRG      -0.330100
     13 CAU         -0.1060     0.3110     0.3820 ca         1 LRG       0.222100
     14 CAN          0.6360    -0.3820     1.3410 ca         1 LRG      -0.182500
     15 CAP          1.9980    -0.5580     1.1870 ca         1 LRG      -0.059000
     16 CAM          0.5550     0.8150    -0.7390 ca         1 LRG      -0.182500
     17 CAO          1.9220     0.6270    -0.8790 ca         1 LRG      -0.059000
     18 CAW          2.6760    -0.0570     0.0720 cp         1 LRG      -0.130000
     19 CAV          4.1310    -0.2450    -0.0870 cp         1 LRG       0.016000
     20 CAK          4.9210     0.7340    -0.6960 ca         1 LRG      -0.114000
     21 CAG          6.2890     0.5570    -0.8450 ca         1 LRG      -0.115000
     22 CAD          6.9010    -0.6020    -0.3850 ca         1 LRG      -0.134000
     23 CAH          6.1280    -1.5830     0.2230 ca         1 LRG      -0.115000
     24 CAL          4.7600    -1.4070     0.3670 ca         1 LRG      -0.114000
     25 HAI         -3.7310    -0.9880     2.1230 ha         1 LRG       0.115000
     26 HAE         -4.2280    -3.3960     1.9830 ha         1 LRG       0.097000
     27 HAC         -4.7820    -4.4270    -0.1980 ha         1 LRG       0.094000
     28 HAF         -4.8470    -3.0190    -2.2360 ha         1 LRG       0.097000
     29 HAJ         -4.3580    -0.6110    -2.0900 ha         1 LRG       0.115000
     30 HAQ         -4.3260     1.3980    -0.5830 hc         1 LRG       0.065700
     31 HAQA        -3.8690     1.2210     1.1040 hc         1 LRG       0.065700
     32 HAX         -2.0760     0.7690    -1.3170 h1         1 LRG       0.030700
     33 HAN          0.1340    -0.7760     2.2160 ha         1 LRG       0.126000
     34 HAP          2.5430    -1.0830     1.9630 ha         1 LRG       0.096000
     35 HAM          0.0280     1.3490    -1.5170 ha         1 LRG       0.126000
     36 HAO          2.4020     1.0180    -1.7680 ha         1 LRG       0.096000
     37 HAK          4.4680     1.6540    -1.0410 ha         1 LRG       0.114000
     38 HAG          6.8790     1.3340    -1.3140 ha         1 LRG       0.099500
     39 HAD          7.9680    -0.7400    -0.4990 ha         1 LRG       0.098000
     40 HAH          6.5900    -2.4930     0.5820 ha         1 LRG       0.099500
     41 HAL          4.1730    -2.1940     0.8250 ha         1 LRG       0.114000
@<TRIPOS>BOND
     1     1     2 ar  
     2     1     6 ar  
     3     1    25 1   
     4     2     3 ar  
     5     2    26 1   
     6     3     4 ar  
     7     3    27 1   
     8     4     5 ar  
     9     4    28 1   
    10     5     6 ar  
    11     5    29 1   
    12     6     7 1   
    13     7     8 1   
    14     7    30 1   
    15     7    31 1   
    16     8     9 1   
    17     8    12 1   
    18     8    32 1   
    19     9    10 1   
    20     9    11 1   
    21    12    13 1   
    22    13    14 ar  
    23    13    16 ar  
    24    14    15 ar  
    25    14    33 1   
    26    15    18 ar  
    27    15    34 1   
    28    16    17 ar  
    29    16    35 1   
    30    17    18 ar  
    31    17    36 1   
    32    18    19 1   
    33    19    20 ar  
    34    19    24 ar  
    35    20    21 ar  
    36    20    37 1   
    37    21    22 ar  
    38    21    38 1   
    39    22    23 ar  
    40    22    39 1   
    41    23    24 ar  
    42    23    40 1   
    43    24    41 1   
@<TRIPOS>SUBSTRUCTURE
     1 LRG         1 TEMP              0 ****  ****    0 ROOT
