@<TRIPOS>MOLECULE
LRG
   41    43     1     0     0
SMALL
No Charge or Current Charge


@<TRIPOS>ATOM
      1 CAI         -4.1620    -1.4610     1.1900 ca         1 LRG      -0.106000
      2 CAE         -4.4520    -2.8320     1.0750 ca         1 LRG      -0.120500
      3 CAC         -4.6530    -3.4040    -0.1920 ca         1 LRG      -0.133000
      4 CAF         -4.5640    -2.6060    -1.3440 ca         1 LRG      -0.120500
      5 CAJ         -4.2740    -1.2350    -1.2290 ca         1 LRG      -0.106000
      6 CAT         -4.0720    -0.6540     0.0380 ca         1 LRG      -0.050300
      7 CAQ         -3.7570     0.8350     0.1580 c3         1 LRG      -0.026100
      8 CAX         -2.3060     1.1800    -0.2540 c3         1 LRG       0.022300
      9 CAS         -2.0790     2.7290    -0.2340 c          1 LRG       0.702000
     10 OAB         -2.5480     3.3820    -1.1570 o          1 LRG      -0.707000
     11 OAA         -1.4070     3.2320     0.6590 o          1 LRG      -0.707000
     12 OAR         -1.4290     0.4550     0.6500 os         1 LRG      -0.330100
     13 CAU         -0.0710     0.3170     0.4310 ca         1 LRG       0.222100
     14 CAN          0.6860    -0.3340     1.4160 ca         1 LRG      -0.182500
     15 CAP          2.0690    -0.5180     1.2500 ca         1 LRG      -0.059000
     16 CAM          0.5700     0.7820    -0.7370 ca         1 LRG      -0.182500
     17 CAO          1.9540     0.5990    -0.9020 ca         1 LRG      -0.059000
     18 CAW          2.7330    -0.0530     0.0870 cp         1 LRG      -0.130000
     19 CAV          4.2080    -0.2480    -0.0930 cp         1 LRG       0.016000
     20 CAK          5.0000     0.7220    -0.7590 ca         1 LRG      -0.114000
     21 CAG          6.3830     0.5410    -0.9270 ca         1 LRG      -0.115000
     22 CAD          7.0050    -0.6170    -0.4340 ca         1 LRG      -0.134000
     23 CAH          6.2430    -1.5920     0.2280 ca         1 LRG      -0.115000
     24 CAL          4.8600    -1.4090     0.3970 ca         1 LRG      -0.114000
     25 HAI         -4.0040    -1.0270     2.1750 ha         1 LRG       0.115000
     26 HAE         -4.5190    -3.4490     1.9680 ha         1 LRG       0.097000
     27 HAC         -4.8760    -4.4650    -0.2810 ha         1 LRG       0.094000
     28 HAF         -4.7190    -3.0480    -2.3260 ha         1 LRG       0.097000
     29 HAJ         -4.2070    -0.6230    -2.1260 ha         1 LRG       0.115000
     30 HAQ         -4.4490     1.4020    -0.4760 hc         1 LRG       0.065700
     31 HAQA        -3.9310     1.1870     1.1820 hc         1 LRG       0.065700
     32 HAX         -2.1590     0.8310    -1.2840 h1         1 LRG       0.030700
     33 HAN          0.1960    -0.6960     2.3160 ha         1 LRG       0.126000
     34 HAP          2.6310    -1.0130     2.0380 ha         1 LRG       0.096000
     35 HAM          0.0150     1.2810    -1.5240 ha         1 LRG       0.126000
     36 HAO          2.4230     0.9550    -1.8160 ha         1 LRG       0.096000
     37 HAK          4.5400     1.6320    -1.1360 ha         1 LRG       0.114000
     38 HAG          6.9730     1.2990    -1.4370 ha         1 LRG       0.099500
     39 HAD          8.0760    -0.7580    -0.5640 ha         1 LRG       0.098000
     40 HAH          6.7220    -2.4910     0.6080 ha         1 LRG       0.099500
     41 HAL          4.2850    -2.1820     0.9000 ha         1 LRG       0.114000
@<TRIPOS>BOND
     1     1     2 ar  
     2     1     6 ar  
     3     1    25 1   
     4     2     3 ar  
     5     2    26 1   
     6     3     4 ar  
     7     3    27 1   
     8     4     5 ar  
     9     4    28 1   
    10     5     6 ar  
    11     5    29 1   
    12     6     7 1   
    13     7     8 1   
    14     7    30 1   
    15     7    31 1   
    16     8     9 1   
    17     8    12 1   
    18     8    32 1   
    19     9    10 1   
    20     9    11 1   
    21    12    13 1   
    22    13    14 ar  
    23    13    16 ar  
    24    14    15 ar  
    25    14    33 1   
    26    15    18 ar  
    27    15    34 1   
    28    16    17 ar  
    29    16    35 1   
    30    17    18 ar  
    31    17    36 1   
    32    18    19 1   
    33    19    20 ar  
    34    19    24 ar  
    35    20    21 ar  
    36    20    37 1   
    37    21    22 ar  
    38    21    38 1   
    39    22    23 ar  
    40    22    39 1   
    41    23    24 ar  
    42    23    40 1   
    43    24    41 1   
@<TRIPOS>SUBSTRUCTURE
     1 LRG         1 TEMP              0 ****  ****    0 ROOT
