@<TRIPOS>MOLECULE
LRH
   23    23     1     0     0
SMALL
No Charge or Current Charge


@<TRIPOS>ATOM
      1 C1           0.5920    -0.9850    -2.4160 c3         1 LRH       0.131600
      2 C2           1.6850    -0.4940    -1.4140 c5         1 LRH       0.355000
      3 C3           1.1670    -0.2150     0.0530 c5         1 LRH       0.161300
      4 C4           1.6400    -1.5100     0.7930 c5         1 LRH       0.126300
      5 C5           3.0020    -1.7900     0.0640 c5         1 LRH       0.139300
      6 C6           4.2330    -0.9800     0.5450 c3         1 LRH      -0.111100
      7 O1           1.0580    -0.8380    -3.7840 oh         1 LRH      -0.717000
      8 O2           2.2310     0.6890    -1.9800 oh         1 LRH      -0.744000
      9 O3           1.7880     0.9780     0.5590 oh         1 LRH      -0.714000
     10 O4           0.7070    -2.5950     0.6140 oh         1 LRH      -0.719000
     11 O5           2.7310    -1.4880    -1.3230 os         1 LRH      -0.448000
     12 H1C1        -0.3240    -0.4000    -2.2600 h1         1 LRH       0.045700
     13 H1C2         0.3550    -2.0350    -2.1950 h1         1 LRH       0.045700
     14 H1           0.4140    -1.3110    -4.3640 ho         1 LRH       0.507000
     15 H3           0.0730    -0.1180     0.0850 h1         1 LRH       0.068700
     16 H2           2.1120     0.4820    -2.9440 ho         1 LRH       0.542000
     17 H4           1.7920    -1.3160     1.8640 h1         1 LRH       0.071700
     18 HA           2.2180     1.3310    -0.2670 ho         1 LRH       0.537000
     19 H5           3.2660    -2.8530     0.1460 h1         1 LRH       0.065700
     20 HB           1.0200    -3.3480     1.1690 ho         1 LRH       0.511000
     21 H6C1         4.1820     0.0780     0.2700 hc         1 LRH       0.047700
     22 H6C2         4.3410    -1.0430     1.6350 hc         1 LRH       0.047700
     23 H6C3         5.1510    -1.3840     0.1020 hc         1 LRH       0.047700
@<TRIPOS>BOND
     1     1     2 1   
     2     1     7 1   
     3     1    12 1   
     4     1    13 1   
     5     2     3 1   
     6     2     8 1   
     7     2    11 1   
     8     3     4 1   
     9     3     9 1   
    10     3    15 1   
    11     4     5 1   
    12     4    10 1   
    13     4    17 1   
    14     5     6 1   
    15     5    11 1   
    16     5    19 1   
    17     6    21 1   
    18     6    22 1   
    19     6    23 1   
    20     7    14 1   
    21     8    16 1   
    22     9    18 1   
    23    10    20 1   
@<TRIPOS>SUBSTRUCTURE
     1 LRH         1 TEMP              0 ****  ****    0 ROOT
