@<TRIPOS>MOLECULE
LRH
   23    23     1     0     0
SMALL
bcc


@<TRIPOS>ATOM
      1 C1           0.6130    -1.0250    -2.3820 c3         1 LRH       0.108400
      2 C2           1.7140    -0.5400    -1.4480 c5         1 LRH       0.308600
      3 C3           1.1730    -0.2670    -0.0160 c5         1 LRH       0.138100
      4 C4           1.7070    -1.4480     0.7880 c5         1 LRH       0.103100
      5 C5           2.9940    -1.8060     0.0410 c5         1 LRH       0.116100
      6 C6           4.2170    -1.0360     0.5090 c3         1 LRH      -0.111100
      7 O1           1.1740    -1.1980    -3.6640 oh         1 LRH      -0.594800
      8 O2           2.2790     0.6370    -1.9340 oh         1 LRH      -0.621800
      9 O3           1.6410     0.9370     0.5230 oh         1 LRH      -0.591800
     10 O4           0.7450    -2.4740     0.7020 oh         1 LRH      -0.596800
     11 O5           2.6860    -1.5520    -1.3240 os         1 LRH      -0.401600
     12 H1C1        -0.1900    -0.2800    -2.3930 h1         1 LRH       0.045700
     13 H1C2         0.1900    -1.9560    -1.9870 h1         1 LRH       0.045700
     14 H1           0.4730    -1.1320    -4.3170 ho         1 LRH       0.408000
     15 H3           0.0740    -0.2840    -0.0200 h1         1 LRH       0.068700
     16 H2           2.2830     0.6080    -2.8990 ho         1 LRH       0.443000
     17 H4           1.9040    -1.1670     1.8310 h1         1 LRH       0.071700
     18 HA           1.8450     1.5310    -0.2100 ho         1 LRH       0.438000
     19 H5           3.2030    -2.8770     0.1310 h1         1 LRH       0.065700
     20 HB           1.1020    -3.2650     1.1190 ho         1 LRH       0.412000
     21 H6C1         4.0680     0.0420     0.4720 hc         1 LRH       0.047700
     22 H6C2         4.4560    -1.3070     1.5380 hc         1 LRH       0.047700
     23 H6C3         5.0820    -1.2840    -0.1070 hc         1 LRH       0.047700
@<TRIPOS>BOND
     1     1     2 1   
     2     1     7 1   
     3     1    12 1   
     4     1    13 1   
     5     2     3 1   
     6     2     8 1   
     7     2    11 1   
     8     3     4 1   
     9     3     9 1   
    10     3    15 1   
    11     4     5 1   
    12     4    10 1   
    13     4    17 1   
    14     5     6 1   
    15     5    11 1   
    16     5    19 1   
    17     6    21 1   
    18     6    22 1   
    19     6    23 1   
    20     7    14 1   
    21     8    16 1   
    22     9    18 1   
    23    10    20 1   
@<TRIPOS>SUBSTRUCTURE
     1 LRH         1 TEMP              0 ****  ****    0 ROOT
