@<TRIPOS>MOLECULE
LRI
   31    33     1     0     0
SMALL
No Charge or Current Charge


@<TRIPOS>ATOM
      1 CAL         -1.6670     2.3950    -0.0830 cc         1 LRI      -0.109000
      2 CAM         -1.9180     3.1400     1.0940 cc         1 LRI      -0.133000
      3 CAN         -2.4480     2.3940     2.1150 cd         1 LRI      -0.232000
      4 SAO         -2.6560     0.7000     1.6320 ss         1 LRI       0.199000
      5 CAK         -2.0010     1.0690     0.0250 cd         1 LRI      -0.253300
      6 CAJ         -1.8640    -0.0130    -1.0150 c3         1 LRI       0.299100
      7 NAI         -0.9190    -1.0810    -0.6270 nh         1 LRI      -0.747300
      8 CAP         -1.3960    -2.4680    -0.4550 cx         1 LRI       0.165500
      9 CAQ         -1.9140    -3.2410    -1.6440 cx         1 LRI      -0.125900
     10 CAR         -0.6060    -3.6330    -1.0040 cx         1 LRI      -0.125900
     11 C4           0.3780    -0.6880    -0.2180 ca         1 LRI       0.430900
     12 N3           0.9520    -1.4030     0.7700 nb         1 LRI      -0.321000
     13 C5           1.0560     0.3880    -0.8120 ca         1 LRI      -0.329000
     14 C6           2.3320     0.6960    -0.3280 ca         1 LRI       0.276000
     15 Cl6          3.2530     2.0280    -1.0070 cl         1 LRI      -0.179000
     16 N1           2.9050    -0.0090     0.6610 nb         1 LRI      -0.273000
     17 C2           2.1730    -1.0180     1.1470 ca         1 LRI       0.426900
     18 NAA          2.7400    -1.7420     2.1390 nv         1 LRI      -1.062900
     19 H1          -1.2450     2.8480    -0.9760 ha         1 LRI       0.134000
     20 H2          -1.7050     4.2030     1.1640 ha         1 LRI       0.137000
     21 H3          -2.7300     2.7170     3.1100 h4         1 LRI       0.151000
     22 H4          -2.8610    -0.4440    -1.1830 h1         1 LRI       0.067700
     23 H5          -1.5590     0.4340    -1.9710 h1         1 LRI       0.067700
     24 H6          -1.9170    -2.6330     0.4900 h1         1 LRI       0.087700
     25 H7          -2.7720    -3.8870    -1.4870 hc         1 LRI       0.077450
     26 H8          -1.8750    -2.7610    -2.6190 hc         1 LRI       0.077450
     27 H9           0.3090    -3.4160    -1.5480 hc         1 LRI       0.077450
     28 H10         -0.5810    -4.5440    -0.4120 hc         1 LRI       0.077450
     29 H11          0.6220     0.9650    -1.6200 ha         1 LRI       0.144000
     30 H12          3.7400    -1.6440     2.2950 hn         1 LRI       0.498500
     31 H13          2.3270    -2.6410     2.3750 hn         1 LRI       0.498500
@<TRIPOS>BOND
     1     1     2 1   
     2     1     5 2   
     3     1    19 1   
     4     2     3 2   
     5     2    20 1   
     6     3     4 1   
     7     3    21 1   
     8     4     5 1   
     9     5     6 1   
    10     6     7 1   
    11     6    22 1   
    12     6    23 1   
    13     7     8 1   
    14     7    11 1   
    15     8     9 1   
    16     8    10 1   
    17     8    24 1   
    18     9    10 1   
    19     9    25 1   
    20     9    26 1   
    21    10    27 1   
    22    10    28 1   
    23    11    12 ar  
    24    11    13 ar  
    25    12    17 ar  
    26    13    14 ar  
    27    13    29 1   
    28    14    15 1   
    29    14    16 ar  
    30    16    17 ar  
    31    17    18 1   
    32    18    30 1   
    33    18    31 1   
@<TRIPOS>SUBSTRUCTURE
     1 LRI         1 TEMP              0 ****  ****    0 ROOT
