@<TRIPOS>MOLECULE
LRI
   31    33     1     0     0
SMALL
abcg2


@<TRIPOS>ATOM
      1 CAL         -1.7300     2.3520    -0.0510 cc         1 LRI      -0.109000
      2 CAM         -2.4000     2.9470     1.0530 cc         1 LRI      -0.133000
      3 CAN         -3.1940     2.0650     1.7180 cd         1 LRI      -0.232000
      4 SAO         -3.1390     0.5090     1.0010 ss         1 LRI       0.199000
      5 CAK         -2.0270     1.0310    -0.2110 cd         1 LRI      -0.253300
      6 CAJ         -1.5020     0.0800    -1.2420 c3         1 LRI       0.299100
      7 NAI         -0.6390    -0.9550    -0.6950 nh         1 LRI      -0.747300
      8 CAP         -1.2660    -2.1290    -0.1610 cx         1 LRI       0.165500
      9 CAQ         -2.2070    -2.8970    -1.0360 cx         1 LRI      -0.125900
     10 CAR         -0.8720    -3.4710    -0.6770 cx         1 LRI      -0.125900
     11 C4           0.6250    -0.6560    -0.2960 ca         1 LRI       0.430900
     12 N3           1.2410    -1.5410     0.4810 nb         1 LRI      -0.321000
     13 C5           1.2780     0.5330    -0.6910 ca         1 LRI      -0.329000
     14 C6           2.5600     0.6670    -0.2220 ca         1 LRI       0.276000
     15 CL6          3.4500     2.0950    -0.6550 cl         1 LRI      -0.179000
     16 N1           3.1980    -0.1890     0.5400 nb         1 LRI      -0.273000
     17 C2           2.4880    -1.2810     0.8610 ca         1 LRI       0.426900
     18 NAA          3.0860    -2.1750     1.6670 nv         1 LRI      -1.062900
     19 H1          -1.0560     2.8880    -0.7050 ha         1 LRI       0.134000
     20 H2          -2.2910     3.9840     1.3390 ha         1 LRI       0.137000
     21 H3          -3.8070     2.2430     2.5880 h4         1 LRI       0.151000
     22 H4          -2.3230    -0.4190    -1.7560 h1         1 LRI       0.067700
     23 H5          -0.9790     0.6460    -2.0130 h1         1 LRI       0.067700
     24 H6          -1.5180    -2.0780     0.8960 h1         1 LRI       0.087700
     25 H7          -3.0970    -3.3010    -0.5730 hc         1 LRI       0.077450
     26 H8          -2.3490    -2.5650    -2.0570 hc         1 LRI       0.077450
     27 H9          -0.1190    -3.5020    -1.4530 hc         1 LRI       0.077450
     28 H10         -0.8210    -4.2840     0.0340 hc         1 LRI       0.077450
     29 H11          0.8320     1.2850    -1.3200 ha         1 LRI       0.144000
     30 H12          4.0710    -2.0950     1.8470 hn         1 LRI       0.498500
     31 H13          2.6620    -3.0780     1.7950 hn         1 LRI       0.498500
@<TRIPOS>BOND
     1     1     2 1   
     2     1     5 2   
     3     1    19 1   
     4     2     3 2   
     5     2    20 1   
     6     3     4 1   
     7     3    21 1   
     8     4     5 1   
     9     5     6 1   
    10     6     7 1   
    11     6    22 1   
    12     6    23 1   
    13     7     8 1   
    14     7    11 1   
    15     8     9 1   
    16     8    10 1   
    17     8    24 1   
    18     9    10 1   
    19     9    25 1   
    20     9    26 1   
    21    10    27 1   
    22    10    28 1   
    23    11    12 ar  
    24    11    13 ar  
    25    12    17 ar  
    26    13    14 ar  
    27    13    29 1   
    28    14    15 1   
    29    14    16 ar  
    30    16    17 ar  
    31    17    18 1   
    32    18    30 1   
    33    18    31 1   
@<TRIPOS>SUBSTRUCTURE
     1 LRI         1 TEMP              0 ****  ****    0 ROOT
