@<TRIPOS>MOLECULE
LRL
   56    60     1     0     0
SMALL
No Charge or Current Charge


@<TRIPOS>ATOM
      1 C4         199.4170   198.1590   173.7120 ca         1 LRL      -0.119000
      2 C5         199.3080   198.8600   172.4960 ca         1 LRL       0.368900
      3 C6         198.8640   196.9220   171.3230 ca         1 LRL       0.344900
      4 C11        197.3670   190.6510   177.7830 c5         1 LRL      -0.091400
      5 C7         198.9520   196.1400   172.4850 ca         1 LRL      -0.155000
      6 C8         199.2300   196.7570   173.7260 ca         1 LRL       0.071000
      7 C9         197.9170   193.1410   177.1940 c3         1 LRL       0.225800
      8 C10        198.0830   191.6330   176.8150 c5         1 LRL       0.143500
      9 N1         199.0510   193.9110   176.6570 n7         1 LRL      -0.916300
     10 N2         206.3090   192.6710   181.9810 nb         1 LRL      -0.665000
     11 C3         199.7140   198.8530   174.8970 ca         1 LRL      -0.028000
     12 N3         199.5340   191.2400   176.8660 n7         1 LRL      -0.908400
     13 C1         199.6480   196.7600   176.1350 ca         1 LRL       0.014000
     14 C2         199.8330   198.1510   176.1030 ca         1 LRL      -0.143000
     15 O1         197.7760   193.9130   174.4780 o          1 LRL      -0.546500
     16 N          199.0360   198.2610   171.3160 nb         1 LRL      -0.664000
     17 C          199.3350   196.0460   174.9530 ca         1 LRL      -0.250500
     18 O          200.3010   193.5870   174.5470 o          1 LRL      -0.546500
     19 C12        198.4410   190.4870   178.8830 c5         1 LRL      -0.086400
     20 C13        199.6910   190.2810   177.9900 c5         1 LRL       0.228800
     21 C14        200.9240   190.5360   178.8580 ca         1 LRL      -0.074300
     22 C15        201.2720   191.8370   179.2780 ca         1 LRL      -0.095500
     23 C16        202.4070   192.0540   180.0770 ca         1 LRL      -0.101500
     24 C17        203.2340   190.9780   180.4850 cp         1 LRL      -0.030000
     25 C18        204.4450   191.2100   181.3370 cp         1 LRL      -0.085000
     26 C19        205.2050   192.4070   181.2390 ca         1 LRL       0.345900
     27 C20        206.7070   191.7340   182.8700 ca         1 LRL       0.336900
     28 C21        206.0300   190.5180   183.0490 ca         1 LRL      -0.164000
     29 C22        204.8880   190.2470   182.2770 ca         1 LRL      -0.066000
     30 C23        202.8760   189.6770   180.0550 ca         1 LRL      -0.101500
     31 C24        201.7400   189.4600   179.2550 ca         1 LRL      -0.095500
     32 S          199.0910   194.2540   175.0280 sy         1 LRL       1.157600
     33 H1         199.4470   199.9410   172.4620 h4         1 LRL       0.018100
     34 H2         198.6490   196.4580   170.3610 h4         1 LRL       0.024100
     35 H4         197.1500   189.6950   177.2900 hc         1 LRL       0.055700
     36 H5         198.8060   195.0710   172.3830 ha         1 LRL       0.138000
     37 H6         197.9300   193.2170   178.2890 h1         1 LRL       0.064200
     38 H7         196.9410   193.5220   176.8600 h1         1 LRL       0.064200
     39 H8         197.6920   191.5110   175.7940 h1         1 LRL       0.062700
     40 H9         199.7710   193.1750   176.6470 hn         1 LRL       0.511000
     41 H10        199.8590   199.9320   174.8840 ha         1 LRL       0.120000
     42 H11        199.7950   190.7500   176.0000 hn         1 LRL       0.432000
     43 H13        199.7520   196.2540   177.0920 ha         1 LRL       0.130000
     44 H14        200.0690   198.6860   177.0200 ha         1 LRL       0.121000
     45 H15        198.5150   191.3750   179.5200 hc         1 LRL       0.056700
     46 H16        198.2500   189.6280   179.5360 hc         1 LRL       0.056700
     47 H17        199.6990   189.2560   177.5940 h1         1 LRL       0.035700
     48 H18        200.6560   192.6840   178.9860 ha         1 LRL       0.116500
     49 H19        202.6360   193.0680   180.3930 ha         1 LRL       0.115500
     50 H20        204.9250   193.1820   180.5270 h4         1 LRL       0.021100
     51 H21        207.5950   191.9670   183.4570 h4         1 LRL       0.020100
     52 H22        206.3890   189.7990   183.7800 ha         1 LRL       0.124000
     53 H23        204.3500   189.3130   182.4190 ha         1 LRL       0.120000
     54 H24        203.4900   188.8230   180.3310 ha         1 LRL       0.115500
     55 H25        201.4950   188.4480   178.9410 ha         1 LRL       0.116500
     56 H3         196.4190   191.0440   178.1660 hc         1 LRL       0.055700
@<TRIPOS>BOND
     1     1     2 ar  
     2     1     6 ar  
     3     1    11 ar  
     4     2    16 ar  
     5     2    33 1   
     6     3     5 ar  
     7     3    16 ar  
     8     3    34 1   
     9     4     8 1   
    10     4    19 1   
    11     4    35 1   
    12     4    56 1   
    13     5     6 ar  
    14     5    36 1   
    15     6    17 ar  
    16     7     8 1   
    17     7     9 1   
    18     7    37 1   
    19     7    38 1   
    20     8    12 1   
    21     8    39 1   
    22     9    32 1   
    23     9    40 1   
    24    10    26 ar  
    25    10    27 ar  
    26    11    14 ar  
    27    11    41 1   
    28    12    20 1   
    29    12    42 1   
    30    13    14 ar  
    31    13    17 ar  
    32    13    43 1   
    33    14    44 1   
    34    15    32 2   
    35    17    32 1   
    36    18    32 2   
    37    19    20 1   
    38    19    45 1   
    39    19    46 1   
    40    20    21 1   
    41    20    47 1   
    42    21    22 ar  
    43    21    31 ar  
    44    22    23 ar  
    45    22    48 1   
    46    23    24 ar  
    47    23    49 1   
    48    24    25 1   
    49    24    30 ar  
    50    25    26 ar  
    51    25    29 ar  
    52    26    50 1   
    53    27    28 ar  
    54    27    51 1   
    55    28    29 ar  
    56    28    52 1   
    57    29    53 1   
    58    30    31 ar  
    59    30    54 1   
    60    31    55 1   
@<TRIPOS>SUBSTRUCTURE
     1 LRL         1 TEMP              0 ****  ****    0 ROOT
