@<TRIPOS>MOLECULE
LRL
   56    60     1     0     0
SMALL
abcg2


@<TRIPOS>ATOM
      1 C4         198.9350   198.2510   173.5850 ca         1 LRL      -0.119000
      2 C5         198.7850   198.9640   172.3720 ca         1 LRL       0.368900
      3 C6         198.7790   197.0540   171.1490 ca         1 LRL       0.344900
      4 C11        197.5260   191.0130   177.8440 c5         1 LRL      -0.091400
      5 C7         198.9220   196.2510   172.2470 ca         1 LRL      -0.155000
      6 C8         199.0050   196.8390   173.5300 ca         1 LRL       0.071000
      7 C9         198.3560   193.2520   177.0180 c3         1 LRL       0.225800
      8 C10        198.3970   191.7380   176.8140 c5         1 LRL       0.143500
      9 N1         199.4230   193.9350   176.2970 n7         1 LRL      -0.916300
     10 N2         206.5820   192.0410   181.9220 nb         1 LRL      -0.665000
     11 C3         199.0140   198.9290   174.8210 ca         1 LRL      -0.028000
     12 N3         199.7600   191.2550   177.0470 n7         1 LRL      -0.908400
     13 C1         199.2340   196.8180   175.9470 ca         1 LRL       0.014000
     14 C2         199.1620   198.2250   175.9810 ca         1 LRL      -0.143000
     15 O1         197.9840   193.8780   174.2190 o          1 LRL      -0.546500
     16 N          198.7090   198.4010   171.1980 nb         1 LRL      -0.664000
     17 C          199.1550   196.1410   174.7610 ca         1 LRL      -0.250500
     18 O          200.4850   194.0230   174.0220 o          1 LRL      -0.546500
     19 C12        198.5150   190.6780   178.9530 c5         1 LRL      -0.086400
     20 C13        199.7900   190.3340   178.1780 c5         1 LRL       0.228800
     21 C14        201.0380   190.4760   179.0120 ca         1 LRL      -0.074300
     22 C15        201.5670   191.7310   179.3010 ca         1 LRL      -0.095500
     23 C16        202.6840   191.8630   180.1070 ca         1 LRL      -0.101500
     24 C17        203.3170   190.7420   180.6490 cp         1 LRL      -0.030000
     25 C18        204.5160   190.8880   181.4940 cp         1 LRL      -0.085000
     26 C19        205.4870   191.8480   181.2020 ca         1 LRL       0.345900
     27 C20        206.7730   191.2720   182.9880 ca         1 LRL       0.336900
     28 C21        205.8830   190.2800   183.3690 ca         1 LRL      -0.164000
     29 C22        204.7400   190.0870   182.6120 ca         1 LRL      -0.066000
     30 C23        202.7870   189.4860   180.3590 ca         1 LRL      -0.101500
     31 C24        201.6660   189.3590   179.5520 ca         1 LRL      -0.095500
     32 S          199.2590   194.3620   174.7300 sy         1 LRL       1.157600
     33 H1         198.7290   200.0480   172.4110 h4         1 LRL       0.018100
     34 H2         198.7150   196.6110   170.1630 h4         1 LRL       0.024100
     35 H4         197.1170   190.0980   177.4110 hc         1 LRL       0.055700
     36 H5         198.9680   195.1820   172.1000 ha         1 LRL       0.138000
     37 H6         198.4940   193.4890   178.0760 h1         1 LRL       0.064200
     38 H7         197.3930   193.6650   176.7250 h1         1 LRL       0.064200
     39 H8         198.0760   191.5150   175.7930 h1         1 LRL       0.062700
     40 H9         200.3450   193.5620   176.5040 hn         1 LRL       0.511000
     41 H10        198.9580   200.0110   174.8340 ha         1 LRL       0.120000
     42 H11        200.1720   190.8480   176.2210 hn         1 LRL       0.432000
     43 H13        199.3550   196.2720   176.8720 ha         1 LRL       0.130000
     44 H14        199.2250   198.7330   176.9330 ha         1 LRL       0.121000
     45 H15        198.6840   191.5430   179.6000 hc         1 LRL       0.056700
     46 H16        198.1930   189.8540   179.5900 hc         1 LRL       0.056700
     47 H17        199.7160   189.2890   177.8460 h1         1 LRL       0.035700
     48 H18        201.0980   192.6170   178.8920 ha         1 LRL       0.116500
     49 H19        203.0570   192.8560   180.3310 ha         1 LRL       0.115500
     50 H20        205.3730   192.4820   180.3290 h4         1 LRL       0.021100
     51 H21        207.6740   191.4530   183.5630 h4         1 LRL       0.020100
     52 H22        206.0790   189.6770   184.2450 ha         1 LRL       0.124000
     53 H23        204.0180   189.3330   182.9000 ha         1 LRL       0.120000
     54 H24        203.2660   188.5940   180.7440 ha         1 LRL       0.115500
     55 H25        201.2810   188.3700   179.3310 ha         1 LRL       0.116500
     56 H3         196.6840   191.6170   178.1880 hc         1 LRL       0.055700
@<TRIPOS>BOND
     1     1     2 ar  
     2     1     6 ar  
     3     1    11 ar  
     4     2    16 ar  
     5     2    33 1   
     6     3     5 ar  
     7     3    16 ar  
     8     3    34 1   
     9     4     8 1   
    10     4    19 1   
    11     4    35 1   
    12     4    56 1   
    13     5     6 ar  
    14     5    36 1   
    15     6    17 ar  
    16     7     8 1   
    17     7     9 1   
    18     7    37 1   
    19     7    38 1   
    20     8    12 1   
    21     8    39 1   
    22     9    32 1   
    23     9    40 1   
    24    10    26 ar  
    25    10    27 ar  
    26    11    14 ar  
    27    11    41 1   
    28    12    20 1   
    29    12    42 1   
    30    13    14 ar  
    31    13    17 ar  
    32    13    43 1   
    33    14    44 1   
    34    15    32 2   
    35    17    32 1   
    36    18    32 2   
    37    19    20 1   
    38    19    45 1   
    39    19    46 1   
    40    20    21 1   
    41    20    47 1   
    42    21    22 ar  
    43    21    31 ar  
    44    22    23 ar  
    45    22    48 1   
    46    23    24 ar  
    47    23    49 1   
    48    24    25 1   
    49    24    30 ar  
    50    25    26 ar  
    51    25    29 ar  
    52    26    50 1   
    53    27    28 ar  
    54    27    51 1   
    55    28    29 ar  
    56    28    52 1   
    57    29    53 1   
    58    30    31 ar  
    59    30    54 1   
    60    31    55 1   
@<TRIPOS>SUBSTRUCTURE
     1 LRL         1 TEMP              0 ****  ****    0 ROOT
