@<TRIPOS>MOLECULE
LRN
   60    62     1     0     0
SMALL
No Charge or Current Charge


@<TRIPOS>ATOM
      1 N1           7.9590    -4.9860    21.4300 n          1 LRN      -0.412800
      2 C4           8.6540    -0.0900    25.4270 c6         1 LRN      -0.076400
      3 C5           7.8230     0.7850    26.3990 c6         1 LRN      -0.091900
      4 C6          10.0340    -2.6890    24.6170 c3         1 LRN       0.174800
      5 C7          11.3050    -2.3690    23.7670 c6         1 LRN      -0.062700
      6 C8          12.5750    -2.9810    24.4220 c6         1 LRN      -0.070900
      7 C10         14.0320    -1.1790    23.3440 c6         1 LRN      -0.075400
      8 C13          7.9700    -3.3050    23.3020 c6         1 LRN       0.163500
      9 C15          6.5500    -5.4360    23.4400 c6         1 LRN      -0.096400
     10 C17          8.7960    -4.0070    22.1810 c6         1 LRN       0.103000
     11 N            8.7320    -2.2220    24.0330 n3         1 LRN      -0.742600
     12 C11         12.7740    -0.5600    22.6880 c6         1 LRN      -0.072900
     13 C1           5.6900    -0.0600    25.3380 c6         1 LRN      -0.091900
     14 C18          7.5200    -4.7980    20.0980 c          1 LRN       0.599100
     15 O1           6.6870    -5.5440    19.5980 o          1 LRN      -0.614100
     16 C2           6.5170    -0.9460    24.3710 c6         1 LRN      -0.076400
     17 C16          7.4040    -6.0520    22.3050 c6         1 LRN       0.090000
     18 C9          13.8450    -2.6970    23.5820 c6         1 LRN      -0.072900
     19 C12         11.5050    -0.8440    23.5290 c6         1 LRN      -0.070900
     20 C19          8.1240    -3.6680    19.2620 c3         1 LRN      -0.173100
     21 C14          7.3590    -4.3890    24.2470 c6         1 LRN      -0.108400
     22 C            6.4760     1.1980    25.7670 c6         1 LRN       0.167300
     23 O            5.7060     1.9560    26.7030 oh         1 LRN      -0.666000
     24 C3           7.8940    -1.3860    24.9790 c6         1 LRN       0.198500
     25 H1           9.5980    -0.3270    25.9290 hc         1 LRN       0.048950
     26 H2           8.9170     0.5030    24.5410 hc         1 LRN       0.048950
     27 H3           7.6480     0.2330    27.3330 hc         1 LRN       0.050950
     28 H4           8.4000     1.6810    26.6670 hc         1 LRN       0.050950
     29 H5          10.1940    -2.2820    25.6220 h1         1 LRN       0.033200
     30 H6          10.0130    -3.7760    24.7660 h1         1 LRN       0.033200
     31 H7          11.1720    -2.8470    22.7890 hc         1 LRN       0.046700
     32 H8          12.7060    -2.5730    25.4350 hc         1 LRN       0.039700
     33 H9          12.4510    -4.0660    24.5390 hc         1 LRN       0.039700
     34 H10         14.9090    -1.0060    22.7060 hc         1 LRN       0.038200
     35 H11         14.2360    -0.6770    24.3000 hc         1 LRN       0.038200
     36 H12          7.1370    -2.8430    22.7550 h1         1 LRN       0.062700
     37 H13          5.6580    -4.9620    23.0090 hc         1 LRN       0.051700
     38 H14          6.1910    -6.2300    24.1080 hc         1 LRN       0.051700
     39 H15          9.6390    -4.5520    22.6270 h1         1 LRN       0.058200
     40 H16          9.2230    -3.2430    21.5200 h1         1 LRN       0.058200
     41 H18         12.6450    -0.9680    21.6760 hc         1 LRN       0.038450
     42 H19         12.9090     0.5240    22.5720 hc         1 LRN       0.038450
     43 H20          4.7510     0.2380    24.8530 hc         1 LRN       0.050950
     44 H21          5.4110    -0.6470    26.2250 hc         1 LRN       0.050950
     45 H22          6.6820    -0.4100    23.4270 hc         1 LRN       0.048950
     46 H23          5.8950    -1.8180    24.1340 hc         1 LRN       0.048950
     47 H24          6.7930    -6.7610    21.7280 h1         1 LRN       0.063200
     48 H25          8.2350    -6.6250    22.7420 h1         1 LRN       0.063200
     49 H26         13.7740    -3.2170    22.6170 hc         1 LRN       0.038450
     50 H27         14.7280    -3.1050    24.0920 hc         1 LRN       0.038450
     51 H28         11.5820    -0.3220    24.4920 hc         1 LRN       0.039700
     52 H29         10.6310    -0.4260    23.0120 hc         1 LRN       0.039700
     53 H30          7.7580    -3.6680    18.2290 hc         1 LRN       0.061033
     54 H31          7.9170    -2.7100    19.7520 hc         1 LRN       0.061033
     55 H32          9.2170    -3.7320    19.3000 hc         1 LRN       0.061033
     56 H33          8.1500    -4.9040    24.8080 hc         1 LRN       0.044200
     57 H34          6.7020    -3.9290    24.9950 hc         1 LRN       0.044200
     58 H35          6.6780     1.8050    24.8720 h1         1 LRN       0.032700
     59 H36          6.2200     2.7720    26.8950 ho         1 LRN       0.440000
     60 H37          7.6830    -1.9770    25.8830 h1         1 LRN       0.023700
@<TRIPOS>BOND
     1     1    10 1   
     2     1    14 1   
     3     1    17 1   
     4     2     3 1   
     5     2    24 1   
     6     2    25 1   
     7     2    26 1   
     8     3    22 1   
     9     3    27 1   
    10     3    28 1   
    11     4     5 1   
    12     4    11 1   
    13     4    29 1   
    14     4    30 1   
    15     5     6 1   
    16     5    19 1   
    17     5    31 1   
    18     6    18 1   
    19     6    32 1   
    20     6    33 1   
    21     7    12 1   
    22     7    18 1   
    23     7    34 1   
    24     7    35 1   
    25     8    10 1   
    26     8    11 1   
    27     8    21 1   
    28     8    36 1   
    29     9    17 1   
    30     9    21 1   
    31     9    37 1   
    32     9    38 1   
    33    10    39 1   
    34    10    40 1   
    35    11    24 1   
    36    12    19 1   
    37    12    41 1   
    38    12    42 1   
    39    13    16 1   
    40    13    22 1   
    41    13    43 1   
    42    13    44 1   
    43    14    15 2   
    44    14    20 1   
    45    16    24 1   
    46    16    45 1   
    47    16    46 1   
    48    17    47 1   
    49    17    48 1   
    50    18    49 1   
    51    18    50 1   
    52    19    51 1   
    53    19    52 1   
    54    20    53 1   
    55    20    54 1   
    56    20    55 1   
    57    21    56 1   
    58    21    57 1   
    59    22    23 1   
    60    22    58 1   
    61    23    59 1   
    62    24    60 1   
@<TRIPOS>SUBSTRUCTURE
     1 LRN         1 TEMP              0 ****  ****    0 ROOT
