@<TRIPOS>MOLECULE
LRN
   60    62     1     0     0
SMALL
abcg2


@<TRIPOS>ATOM
      1 N1           7.9870    -4.9080    21.4900 n          1 LRN      -0.412800
      2 C4           8.6540    -0.0800    25.2660 c6         1 LRN      -0.076400
      3 C5           7.8450     0.7760    26.2400 c6         1 LRN      -0.091900
      4 C6          10.0140    -2.6590    24.5700 c3         1 LRN       0.174800
      5 C7          11.2740    -2.3430    23.7520 c6         1 LRN      -0.062700
      6 C8          12.4900    -3.0280    24.3880 c6         1 LRN      -0.070900
      7 C10         14.0240    -1.2650    23.4200 c6         1 LRN      -0.075400
      8 C13          7.9950    -3.2820    23.3200 c6         1 LRN       0.163500
      9 C15          6.6460    -5.4180    23.4710 c6         1 LRN      -0.096400
     10 C17          8.8180    -3.9460    22.2070 c6         1 LRN       0.103000
     11 N            8.7450    -2.2010    23.9780 n3         1 LRN      -0.742600
     12 C11         12.8140    -0.5810    22.7830 c6         1 LRN      -0.072900
     13 C1           5.7390    -0.1510    25.2870 c6         1 LRN      -0.091900
     14 C18          7.5030    -4.7270    20.2390 c          1 LRN       0.599100
     15 O1           6.7130    -5.5250    19.7200 o          1 LRN      -0.614100
     16 C2           6.5500    -1.0330    24.3360 c6         1 LRN      -0.076400
     17 C16          7.4890    -5.9920    22.3340 c6         1 LRN       0.090000
     18 C9          13.7760    -2.7640    23.6030 c6         1 LRN      -0.072900
     19 C12         11.5380    -0.8460    23.5830 c6         1 LRN      -0.070900
     20 C19          7.9700    -3.5070    19.4720 c3         1 LRN      -0.173100
     21 C14          7.4260    -4.3640    24.2580 c6         1 LRN      -0.108400
     22 C            6.4810     1.1180    25.6590 c6         1 LRN       0.167300
     23 O            5.6640     1.8470    26.5880 oh         1 LRN      -0.666000
     24 C3           7.9300    -1.3860    24.9090 c6         1 LRN       0.198500
     25 H1           9.6320    -0.2830    25.6980 hc         1 LRN       0.048950
     26 H2           8.8300     0.4770    24.3410 hc         1 LRN       0.048950
     27 H3           7.6960     0.2380    27.1820 hc         1 LRN       0.050950
     28 H4           8.3920     1.6950    26.4730 hc         1 LRN       0.050950
     29 H5          10.1320    -2.2220    25.5630 h1         1 LRN       0.033200
     30 H6           9.9870    -3.7410    24.7340 h1         1 LRN       0.033200
     31 H7          11.1470    -2.7650    22.7490 hc         1 LRN       0.046700
     32 H8          12.6090    -2.6560    25.4130 hc         1 LRN       0.039700
     33 H9          12.3100    -4.1040    24.4630 hc         1 LRN       0.039700
     34 H10         14.9190    -1.1010    22.8140 hc         1 LRN       0.038200
     35 H11         14.2170    -0.8110    24.3990 hc         1 LRN       0.038200
     36 H12          7.1560    -2.8180    22.8020 h1         1 LRN       0.062700
     37 H13          5.7430    -4.9700    23.0450 hc         1 LRN       0.051700
     38 H14          6.3260    -6.2290    24.1310 hc         1 LRN       0.051700
     39 H15          9.6700    -4.4890    22.6220 h1         1 LRN       0.058200
     40 H16          9.2030    -3.1920    21.5300 h1         1 LRN       0.058200
     41 H18         12.6840    -0.9590    21.7620 hc         1 LRN       0.038450
     42 H19         12.9870     0.4960    22.7000 hc         1 LRN       0.038450
     43 H20          4.7800     0.1010    24.8290 hc         1 LRN       0.050950
     44 H21          5.5220    -0.7030    26.2080 hc         1 LRN       0.050950
     45 H22          6.6900    -0.5190    23.3790 hc         1 LRN       0.048950
     46 H23          5.9650    -1.9290    24.1350 hc         1 LRN       0.048950
     47 H24          6.9160    -6.6750    21.7150 h1         1 LRN       0.063200
     48 H25          8.3520    -6.5280    22.7410 h1         1 LRN       0.063200
     49 H26         13.6970    -3.2360    22.6170 hc         1 LRN       0.038450
     50 H27         14.6260    -3.2300    24.1070 hc         1 LRN       0.038450
     51 H28         11.6350    -0.3880    24.5740 hc         1 LRN       0.039700
     52 H29         10.6800    -0.3740    23.1010 hc         1 LRN       0.039700
     53 H30          7.5120    -3.5320    18.4870 hc         1 LRN       0.061033
     54 H31          7.6760    -2.5860    19.9790 hc         1 LRN       0.061033
     55 H32          9.0550    -3.4940    19.3620 hc         1 LRN       0.061033
     56 H33          8.2450    -4.8510    24.7960 hc         1 LRN       0.044200
     57 H34          6.7810    -3.9060    25.0090 hc         1 LRN       0.044200
     58 H35          6.6240     1.7250    24.7550 h1         1 LRN       0.032700
     59 H36          6.1400     2.6470    26.8430 ho         1 LRN       0.440000
     60 H37          7.7640    -1.9410    25.8490 h1         1 LRN       0.023700
@<TRIPOS>BOND
     1     1    10 1   
     2     1    14 1   
     3     1    17 1   
     4     2     3 1   
     5     2    24 1   
     6     2    25 1   
     7     2    26 1   
     8     3    22 1   
     9     3    27 1   
    10     3    28 1   
    11     4     5 1   
    12     4    11 1   
    13     4    29 1   
    14     4    30 1   
    15     5     6 1   
    16     5    19 1   
    17     5    31 1   
    18     6    18 1   
    19     6    32 1   
    20     6    33 1   
    21     7    12 1   
    22     7    18 1   
    23     7    34 1   
    24     7    35 1   
    25     8    10 1   
    26     8    11 1   
    27     8    21 1   
    28     8    36 1   
    29     9    17 1   
    30     9    21 1   
    31     9    37 1   
    32     9    38 1   
    33    10    39 1   
    34    10    40 1   
    35    11    24 1   
    36    12    19 1   
    37    12    41 1   
    38    12    42 1   
    39    13    16 1   
    40    13    22 1   
    41    13    43 1   
    42    13    44 1   
    43    14    15 2   
    44    14    20 1   
    45    16    24 1   
    46    16    45 1   
    47    16    46 1   
    48    17    47 1   
    49    17    48 1   
    50    18    49 1   
    51    18    50 1   
    52    19    51 1   
    53    19    52 1   
    54    20    53 1   
    55    20    54 1   
    56    20    55 1   
    57    21    56 1   
    58    21    57 1   
    59    22    23 1   
    60    22    58 1   
    61    23    59 1   
    62    24    60 1   
@<TRIPOS>SUBSTRUCTURE
     1 LRN         1 TEMP              0 ****  ****    0 ROOT
