@<TRIPOS>MOLECULE
LRO
   33    34     1     0     0
SMALL
abcg2


@<TRIPOS>ATOM
      1 OAB         -2.6720    -3.0820    -0.0840 o          1 LRO      -0.689000
      2 CAN         -1.7300    -2.2700    -0.0200 c          1 LRO       0.717200
      3 OAE         -0.5170    -2.5040    -0.0480 o          1 LRO      -0.689000
      4 CAQ         -2.1750    -0.7990     0.0900 cc         1 LRO       0.027400
      5 NAL         -3.5190    -0.6580    -0.1280 ns         1 LRO      -0.494600
      6 CAS         -4.2000     0.5160    -0.1200 c          1 LRO       0.606000
      7 OAC         -5.3980     0.6070    -0.3150 o          1 LRO      -0.610000
      8 NAM         -3.4000     1.5990     0.1290 ns         1 LRO      -0.471500
      9 CAT         -2.0390     1.5900     0.3740 c          1 LRO       0.578200
     10 OAD         -1.4580     2.6440     0.5740 o          1 LRO      -0.588000
     11 CAR         -1.4010     0.2790     0.3640 cd         1 LRO      -0.293400
     12 CAK          0.0770     0.2560     0.6140 c3         1 LRO       0.018800
     13 CAJ          0.8840     0.4480    -0.6780 c3         1 LRO      -0.032100
     14 CAP          2.3630     0.3400    -0.4390 ca         1 LRO      -0.057300
     15 CAH          2.9530    -0.9050    -0.2250 ca         1 LRO      -0.106500
     16 CAF          4.3110    -1.0200     0.0290 ca         1 LRO      -0.119500
     17 CAO          5.1320     0.1070     0.0800 ca         1 LRO      -0.101300
     18 CAA          6.6070    -0.0250     0.3250 c3         1 LRO      -0.036800
     19 CAG          4.5420     1.3490    -0.1290 ca         1 LRO      -0.119500
     20 CAI          3.1800     1.4640    -0.3830 ca         1 LRO      -0.106500
     21 H2          -3.8570     2.5030     0.1310 hn         1 LRO       0.318500
     22 H4           0.3310     1.0560     1.3130 hc         1 LRO       0.056700
     23 H5           0.3650    -0.6820     1.0780 hc         1 LRO       0.056700
     24 H6           0.5700    -0.3120    -1.3960 hc         1 LRO       0.052700
     25 H7           0.6470     1.4200    -1.1150 hc         1 LRO       0.052700
     26 H8           2.3350    -1.7960    -0.2590 ha         1 LRO       0.127000
     27 H9           4.7400    -2.0020     0.1920 ha         1 LRO       0.097500
     28 H10          7.1300    -0.3370    -0.5820 hc         1 LRO       0.030367
     29 H11          7.0470     0.9200     0.6430 hc         1 LRO       0.030367
     30 H12          6.8220    -0.7720     1.0900 hc         1 LRO       0.030367
     31 H13          5.1530     2.2440    -0.0900 ha         1 LRO       0.097500
     32 H14          2.7500     2.4470    -0.5440 ha         1 LRO       0.127000
     33 H15         -4.0260    -1.5210    -0.2890 hn         1 LRO       0.488000
@<TRIPOS>BOND
     1     1     2 1   
     2     2     3 1   
     3     2     4 1   
     4     4     5 1   
     5     4    11 2   
     6     5     6 1   
     7     5    33 1   
     8     6     7 2   
     9     6     8 1   
    10     8     9 1   
    11     8    21 1   
    12     9    10 2   
    13     9    11 1   
    14    11    12 1   
    15    12    13 1   
    16    12    22 1   
    17    12    23 1   
    18    13    14 1   
    19    13    24 1   
    20    13    25 1   
    21    14    15 ar  
    22    14    20 ar  
    23    15    16 ar  
    24    15    26 1   
    25    16    17 ar  
    26    16    27 1   
    27    17    18 1   
    28    17    19 ar  
    29    18    28 1   
    30    18    29 1   
    31    18    30 1   
    32    19    20 ar  
    33    19    31 1   
    34    20    32 1   
@<TRIPOS>SUBSTRUCTURE
     1 LRO         1 TEMP              0 ****  ****    0 ROOT
