@<TRIPOS>MOLECULE
LRO
   33    34     1     0     0
SMALL
No Charge or Current Charge


@<TRIPOS>ATOM
      1 OAB         -2.7380    -3.1170    -0.2330 o          1 LRO      -0.689000
      2 CAN         -1.8510    -2.2990    -0.0120 c          1 LRO       0.717200
      3 OAE         -0.6840    -2.6410     0.1130 o          1 LRO      -0.689000
      4 CAQ         -2.2570    -0.8350     0.0880 cc         1 LRO       0.027400
      5 NAL         -3.6140    -0.5820    -0.1090 ns         1 LRO      -0.494600
      6 CAS         -4.2200     0.6290    -0.0940 c          1 LRO       0.606000
      7 OAC         -5.4130     0.7690    -0.2760 o          1 LRO      -0.610000
      8 NAM         -3.3810     1.6640     0.1390 ns         1 LRO      -0.471500
      9 CAT         -2.0380     1.6300     0.3590 c          1 LRO       0.578200
     10 OAD         -1.4210     2.6660     0.5480 o          1 LRO      -0.588000
     11 CAR         -1.4310     0.2630     0.3400 cd         1 LRO      -0.293400
     12 CAK          0.0690     0.2240     0.6010 c3         1 LRO       0.018800
     13 CAJ          0.8960     0.2800    -0.7010 c3         1 LRO      -0.032100
     14 CAP          2.3950     0.2330    -0.4350 ca         1 LRO      -0.057300
     15 CAH          3.0450    -1.0020    -0.2600 ca         1 LRO      -0.106500
     16 CAF          4.4280    -1.0480    -0.0090 ca         1 LRO      -0.119500
     17 CAO          5.1750     0.1420     0.0710 ca         1 LRO      -0.101300
     18 CAA          6.6710     0.0930     0.3390 c3         1 LRO      -0.036800
     19 CAG          4.5250     1.3780    -0.1050 ca         1 LRO      -0.119500
     20 CAI          3.1420     1.4240    -0.3550 ca         1 LRO      -0.106500
     21 H2          -3.8050     2.5770     0.1510 hn         1 LRO       0.318500
     22 H4           0.3790     1.0590     1.2410 hc         1 LRO       0.056700
     23 H5           0.3480    -0.6650     1.1760 hc         1 LRO       0.056700
     24 H6           0.6050    -0.5560    -1.3490 hc         1 LRO       0.052700
     25 H7           0.6360     1.1930    -1.2510 hc         1 LRO       0.052700
     26 H8           2.4770    -1.9290    -0.3160 ha         1 LRO       0.127000
     27 H9           4.9180    -2.0100     0.1230 ha         1 LRO       0.097500
     28 H10          7.2340     0.0320    -0.6010 hc         1 LRO       0.030367
     29 H11          7.0110     0.9860     0.8760 hc         1 LRO       0.030367
     30 H12          6.9400    -0.7790     0.9470 hc         1 LRO       0.030367
     31 H13          5.0900     2.3050    -0.0480 ha         1 LRO       0.097500
     32 H14          2.6520     2.3860    -0.4860 ha         1 LRO       0.127000
     33 H15         -4.2340    -1.3670    -0.2900 hn         1 LRO       0.488000
@<TRIPOS>BOND
     1     1     2 1   
     2     2     3 1   
     3     2     4 1   
     4     4     5 1   
     5     4    11 2   
     6     5     6 1   
     7     5    33 1   
     8     6     7 2   
     9     6     8 1   
    10     8     9 1   
    11     8    21 1   
    12     9    10 2   
    13     9    11 1   
    14    11    12 1   
    15    12    13 1   
    16    12    22 1   
    17    12    23 1   
    18    13    14 1   
    19    13    24 1   
    20    13    25 1   
    21    14    15 ar  
    22    14    20 ar  
    23    15    16 ar  
    24    15    26 1   
    25    16    17 ar  
    26    16    27 1   
    27    17    18 1   
    28    17    19 ar  
    29    18    28 1   
    30    18    29 1   
    31    18    30 1   
    32    19    20 ar  
    33    19    31 1   
    34    20    32 1   
@<TRIPOS>SUBSTRUCTURE
     1 LRO         1 TEMP              0 ****  ****    0 ROOT
