@<TRIPOS>MOLECULE
LRP
   87    92     1     0     0
SMALL
No Charge or Current Charge


@<TRIPOS>ATOM
      1 N1          -1.6430    -0.0500     3.2110 nc         1 LRP      -0.545100
      2 C2          -5.0000    -3.6780    -1.5600 c3         1 LRP       0.149900
      3 N3          -4.1450    -2.4200     4.6630 nb         1 LRP      -0.331000
      4 C4          -1.4400    -0.1550     1.8840 cd         1 LRP       0.454700
      5 C5          -2.9450    -1.6960     2.2980 ca         1 LRP       0.118500
      6 C6          -2.5950    -1.0380     3.4560 ca         1 LRP      -0.072600
      7 O2          -1.4740    -0.5520    -0.9060 os         1 LRP      -0.440000
      8 N4          -3.8540    -2.6880     2.2850 nb         1 LRP      -0.257000
      9 O16         -1.7060     4.6370    -0.9170 o          1 LRP      -0.842000
     10 P           -1.9190     3.2540    -0.3970 p5         1 LRP       1.444800
     11 O15         -2.7210     3.2290     0.8620 o          1 LRP      -0.842000
     12 C12         -3.2770     1.1310    -1.2650 c3         1 LRP       0.203600
     13 C11         -2.4020    -0.0080    -1.8790 c5         1 LRP       0.121300
     14 C3          -2.1410    -1.5770    -0.1260 c5         1 LRP       0.322300
     15 N           -2.2190    -1.1500     1.2690 na         1 LRP      -0.296300
     16 C10         -4.4110    -2.9990     3.4730 ca         1 LRP       0.161900
     17 C7          -3.2240    -1.4290     4.6770 ca         1 LRP       0.446900
     18 N2          -2.9630    -0.8440     5.9510 nh         1 LRP      -0.753300
     19 C9          -3.8940    -1.0310     7.0940 c3         1 LRP       0.213100
     20 C8          -1.7070    -0.1060     6.2230 c3         1 LRP       0.213100
     21 C1          -3.4930    -1.8460    -0.8690 c5         1 LRP       0.125300
     22 O1          -3.7700    -3.2770    -0.9340 os         1 LRP      -0.428000
     23 C           -3.2050    -1.2770    -2.3040 c5         1 LRP       0.090300
     24 O           -2.4010    -2.1460    -3.1320 oh         1 LRP      -0.719000
     25 O4          -0.6110     2.3800    -0.3230 os         1 LRP      -0.720800
     26 P1           0.6220     3.1430     0.2960 p5         1 LRP       1.498800
     27 O14          0.2750     3.9930     1.4740 o          1 LRP      -0.852000
     28 O13          1.3530     3.8570    -0.7920 o          1 LRP      -0.852000
     29 O5           1.3350     1.8160     0.7610 os         1 LRP      -0.707800
     30 P2           2.8890     1.9930     0.9430 p5         1 LRP       1.479800
     31 O12          3.6440     1.7750    -0.3270 o          1 LRP      -0.850000
     32 O6           3.2970     3.2500     1.6410 o          1 LRP      -0.850000
     33 O7           3.1390     0.7600     1.9610 os         1 LRP      -0.571400
     34 C13          3.3980    -0.5780     1.5000 c3         1 LRP       0.226600
     35 C14          2.1010    -1.4470     1.5410 c5         1 LRP       0.141300
     36 C23          2.3680    -2.9720     1.3270 c5         1 LRP       0.101300
     37 O11          1.2550    -3.8040     1.6750 oh         1 LRP      -0.714000
     38 C22          2.5930    -2.9750    -0.2100 c5         1 LRP       0.061300
     39 O10          2.4940    -4.2900    -0.7860 oh         1 LRP      -0.699000
     40 C15          1.4730    -1.9840    -0.6900 c5         1 LRP       0.328300
     41 O8           1.2190    -1.1140     0.4440 os         1 LRP      -0.381000
     42 N5           1.7810    -1.1710    -1.8660 na         1 LRP      -0.049700
     43 C18          2.4890    -1.5610    -3.0030 cc         1 LRP       0.200400
     44 N9           3.0890    -2.7730    -3.2690 nc         1 LRP      -0.666100
     45 C21          3.6790    -2.8110    -4.4420 cd         1 LRP       0.739800
     46 N8           4.2740    -3.9520    -4.7480 nv         1 LRP      -1.045200
     47 N7           3.7410    -1.8310    -5.3610 ns         1 LRP      -0.446400
     48 C20          3.1650    -0.6170    -5.1930 c          1 LRP       0.639600
     49 O9           3.2150     0.2650    -6.0340 o          1 LRP      -0.546000
     50 C19          2.4900    -0.5210    -3.8980 cd         1 LRP      -0.331600
     51 N6           1.7600     0.4960    -3.3210 na         1 LRP       0.120000
     52 C17          1.5130     1.8090    -3.9350 c3         1 LRP       0.042900
     53 C16          1.2810     0.0980    -2.1010 cc         1 LRP       0.072700
     54 H1          -5.1070    -4.7700    -1.5230 h1         1 LRP       0.027033
     55 H2          -5.8610    -3.2330    -1.0450 h1         1 LRP       0.027033
     56 H3          -5.0280    -3.3700    -2.6130 h1         1 LRP       0.027033
     57 H4          -0.7380     0.4370     1.3090 h5         1 LRP       0.144800
     58 H6          -3.4110     0.9680    -0.1880 h1         1 LRP       0.022700
     59 H7          -4.2720     1.1000    -1.7290 h1         1 LRP       0.022700
     60 H8          -1.8400     0.4060    -2.7270 h1         1 LRP       0.071700
     61 H9          -1.5270    -2.4850    -0.1290 h2         1 LRP       0.081700
     62 H10         -5.1490    -3.7990     3.4730 h5         1 LRP       0.017100
     63 H11         -3.7890    -2.0390     7.5170 h1         1 LRP       0.046533
     64 H12         -3.6950    -0.3010     7.8900 h1         1 LRP       0.046533
     65 H13         -4.9360    -0.8880     6.7730 h1         1 LRP       0.046533
     66 H14         -1.7640     0.9150     5.8220 h1         1 LRP       0.046533
     67 H15         -1.5140    -0.0400     7.3020 h1         1 LRP       0.046533
     68 H16         -0.8500    -0.6220     5.7690 h1         1 LRP       0.046533
     69 H17         -4.3280    -1.3280    -0.3760 h1         1 LRP       0.083700
     70 H18         -4.1390    -1.0090    -2.8200 h1         1 LRP       0.058700
     71 H19         -2.3690    -1.7520    -4.0340 ho         1 LRP       0.497000
     72 H22          3.8230    -0.5810     0.4860 h1         1 LRP       0.016700
     73 H23          4.1440    -1.0450     2.1600 h1         1 LRP       0.016700
     74 H24          1.5880    -1.2610     2.4940 h1         1 LRP       0.099700
     75 H25          3.2690    -3.3020     1.8640 h1         1 LRP       0.046700
     76 H26          1.2990    -4.5450     1.0210 ho         1 LRP       0.509000
     77 H27          3.5830    -2.5550    -0.4390 h1         1 LRP       0.069700
     78 H28          2.7040    -4.1680    -1.7480 ho         1 LRP       0.499000
     79 H29          0.5570    -2.5360    -0.9320 h2         1 LRP       0.111700
     80 H30          4.0410    -4.7180    -4.1310 hn         1 LRP       0.506500
     81 H31          4.3410    -4.1940    -5.7290 hn         1 LRP       0.506500
     82 H32          4.2440    -1.9720    -6.2200 hn         1 LRP       0.314500
     83 H33          1.0000     1.6750    -4.8950 h1         1 LRP       0.096700
     84 H34          0.8880     2.4240    -3.2740 h1         1 LRP       0.096700
     85 H35          2.4690     2.3200    -4.1020 h1         1 LRP       0.096700
     86 H36          0.6520     0.6700    -1.4310 h5         1 LRP       0.314000
     87 O3          -2.6710     2.4030    -1.5450 os         1 LRP      -0.575400
@<TRIPOS>BOND
     1     1     4 2   
     2     1     6 1   
     3     2    22 1   
     4     2    54 1   
     5     2    55 1   
     6     2    56 1   
     7     3    16 ar  
     8     3    17 ar  
     9     4    15 1   
    10     4    57 1   
    11     5     6 ar  
    12     5     8 ar  
    13     5    15 1   
    14     6    17 ar  
    15     7    13 1   
    16     7    14 1   
    17     8    16 ar  
    18     9    10 1   
    19    10    11 1   
    20    10    25 1   
    21    10    87 1   
    22    12    13 1   
    23    12    58 1   
    24    12    59 1   
    25    12    87 1   
    26    13    23 1   
    27    13    60 1   
    28    14    15 1   
    29    14    21 1   
    30    14    61 1   
    31    16    62 1   
    32    17    18 1   
    33    18    19 1   
    34    18    20 1   
    35    19    63 1   
    36    19    64 1   
    37    19    65 1   
    38    20    66 1   
    39    20    67 1   
    40    20    68 1   
    41    21    22 1   
    42    21    23 1   
    43    21    69 1   
    44    23    24 1   
    45    23    70 1   
    46    24    71 1   
    47    25    26 1   
    48    26    27 1   
    49    26    28 1   
    50    26    29 1   
    51    29    30 1   
    52    30    31 1   
    53    30    32 1   
    54    30    33 1   
    55    33    34 1   
    56    34    35 1   
    57    34    72 1   
    58    34    73 1   
    59    35    36 1   
    60    35    41 1   
    61    35    74 1   
    62    36    37 1   
    63    36    38 1   
    64    36    75 1   
    65    37    76 1   
    66    38    39 1   
    67    38    40 1   
    68    38    77 1   
    69    39    78 1   
    70    40    41 1   
    71    40    42 1   
    72    40    79 1   
    73    42    43 1   
    74    42    53 2   
    75    43    44 1   
    76    43    50 2   
    77    44    45 2   
    78    45    46 1   
    79    45    47 1   
    80    46    80 1   
    81    46    81 1   
    82    47    48 1   
    83    47    82 1   
    84    48    49 2   
    85    48    50 1   
    86    50    51 1   
    87    51    52 1   
    88    51    53 1   
    89    52    83 1   
    90    52    84 1   
    91    52    85 1   
    92    53    86 1   
@<TRIPOS>SUBSTRUCTURE
     1 LRP         1 TEMP              0 ****  ****    0 ROOT
