@<TRIPOS>MOLECULE
LRP
   87    92     1     0     0
SMALL
abcg2


@<TRIPOS>ATOM
      1 N1          -2.0400    -0.8830     1.8210 nc         1 LRP      -0.545100
      2 C2          -6.2260    -2.3190    -2.1590 c3         1 LRP       0.149900
      3 N3          -1.2500    -4.3850     2.7090 nb         1 LRP      -0.331000
      4 C4          -2.3670    -0.6940     0.5790 cd         1 LRP       0.454700
      5 C5          -2.0040    -2.8490     0.7030 ca         1 LRP       0.118500
      6 C6          -1.8060    -2.2340     1.9340 ca         1 LRP      -0.072600
      7 O2          -1.7210    -1.1540    -2.2480 os         1 LRP      -0.440000
      8 N4          -1.8500    -4.1420     0.4180 nb         1 LRP      -0.257000
      9 O16         -1.7100     4.1120    -2.2640 o          1 LRP      -0.842000
     10 P           -1.5330     2.9100    -1.3890 p5         1 LRP       1.444800
     11 O15         -2.5300     2.6210    -0.3040 o          1 LRP      -0.842000
     12 C12         -2.5850     1.0420    -2.8370 c3         1 LRP       0.203600
     13 C11         -2.3850    -0.4050    -3.2580 c5         1 LRP       0.121300
     14 C3          -2.6150    -1.9800    -1.5640 c5         1 LRP       0.322300
     15 N           -2.3850    -1.8520    -0.1480 na         1 LRP      -0.296300
     16 C10         -1.4680    -4.8280     1.4800 ca         1 LRP       0.161900
     17 C7          -1.4080    -3.0820     3.0000 ca         1 LRP       0.446900
     18 N2          -1.1940    -2.7120     4.2670 nh         1 LRP      -0.753300
     19 C9          -0.7740    -3.7040     5.2360 c3         1 LRP       0.213100
     20 C8          -1.1820    -1.3360     4.7150 c3         1 LRP       0.213100
     21 C1          -4.0140    -1.5690    -2.0310 c5         1 LRP       0.125300
     22 O1          -4.8820    -2.6430    -1.8850 os         1 LRP      -0.428000
     23 C           -3.7270    -1.1080    -3.4650 c5         1 LRP       0.090300
     24 O           -3.6180    -2.2550    -4.2630 oh         1 LRP      -0.719000
     25 O4          -0.0090     2.8410    -0.8010 os         1 LRP      -0.720800
     26 P1           0.7250     4.1260    -0.0850 p5         1 LRP       1.498800
     27 O14         -0.3090     5.0420     0.4890 o          1 LRP      -0.852000
     28 O13          1.7980     4.6330    -0.9940 o          1 LRP      -0.852000
     29 O5           1.3970     3.2980     1.1690 os         1 LRP      -0.707800
     30 P2           2.9930     3.3100     1.5390 p5         1 LRP       1.479800
     31 O12          3.7580     2.5380     0.4980 o          1 LRP      -0.850000
     32 O6           3.4080     4.6850     1.9450 o          1 LRP      -0.850000
     33 O7           2.9010     2.4170     2.9170 os         1 LRP      -0.571400
     34 C13          3.4180     1.1090     3.0040 c3         1 LRP       0.226600
     35 C14          2.3230     0.0590     3.0210 c5         1 LRP       0.141300
     36 C23          2.9040    -1.3510     3.0400 c5         1 LRP       0.101300
     37 O11          2.0260    -2.2050     3.7250 oh         1 LRP      -0.714000
     38 C22          2.9340    -1.6830     1.5440 c5         1 LRP       0.061300
     39 O10          2.9200    -3.0450     1.2460 oh         1 LRP      -0.699000
     40 C15          1.6370    -1.0190     1.0860 c5         1 LRP       0.328300
     41 O8           1.5140     0.1370     1.8400 os         1 LRP      -0.381000
     42 N5           1.6400    -0.6520    -0.3230 na         1 LRP      -0.049700
     43 C18          1.2030    -1.4540    -1.3450 cc         1 LRP       0.200400
     44 N9           0.6950    -2.6730    -1.2120 nc         1 LRP      -0.666100
     45 C21          0.3580    -3.2230    -2.3550 cd         1 LRP       0.739800
     46 N8          -0.1970    -4.4400    -2.3570 nv         1 LRP      -1.045200
     47 N7           0.5800    -2.6230    -3.5610 ns         1 LRP      -0.446400
     48 C20          1.0570    -1.3270    -3.7550 c          1 LRP       0.639600
     49 O9           1.1570    -0.8450    -4.8690 o          1 LRP      -0.546000
     50 C19          1.3890    -0.7410    -2.5020 cd         1 LRP      -0.331600
     51 N6           1.9190     0.4810    -2.1490 na         1 LRP       0.120000
     52 C17          2.1770     1.6030    -3.0320 c3         1 LRP       0.042900
     53 C16          2.0680     0.5070    -0.8430 cc         1 LRP       0.072700
     54 H1          -6.8290    -3.1980    -1.9350 h1         1 LRP       0.027033
     55 H2          -6.5770    -1.4880    -1.5370 h1         1 LRP       0.027033
     56 H3          -6.3840    -2.0500    -3.2080 h1         1 LRP       0.027033
     57 H4          -2.5830     0.2750     0.1460 h5         1 LRP       0.144800
     58 H6          -3.3750     1.1070    -2.0790 h1         1 LRP       0.022700
     59 H7          -2.9400     1.5990    -3.7130 h1         1 LRP       0.022700
     60 H8          -1.7700    -0.4400    -4.1620 h1         1 LRP       0.071700
     61 H9          -2.4550    -3.0360    -1.8060 h2         1 LRP       0.081700
     62 H10         -1.3120    -5.8910     1.3320 h5         1 LRP       0.017100
     63 H11          0.2070    -4.1180     5.0010 h1         1 LRP       0.046533
     64 H12         -0.7180    -3.2240     6.2100 h1         1 LRP       0.046533
     65 H13         -1.4830    -4.5290     5.2990 h1         1 LRP       0.046533
     66 H14         -1.5250    -0.6680     3.9340 h1         1 LRP       0.046533
     67 H15         -1.8350    -1.2210     5.5820 h1         1 LRP       0.046533
     68 H16         -0.1720    -1.0410     5.0030 h1         1 LRP       0.046533
     69 H17         -4.3720    -0.7030    -1.4520 h1         1 LRP       0.083700
     70 H18         -4.4890    -0.4150    -3.8460 h1         1 LRP       0.058700
     71 H19         -3.3360    -1.9860    -5.1430 ho         1 LRP       0.497000
     72 H22          4.1300     0.9110     2.1980 h1         1 LRP       0.016700
     73 H23          3.9660     1.0260     3.9470 h1         1 LRP       0.016700
     74 H24          1.6720     0.2200     3.8850 h1         1 LRP       0.099700
     75 H25          3.9110    -1.3690     3.4780 h1         1 LRP       0.046700
     76 H26          2.1730    -3.1040     3.4070 ho         1 LRP       0.509000
     77 H27          3.7860    -1.1730     1.0770 h1         1 LRP       0.069700
     78 H28          3.8240    -3.3740     1.2540 ho         1 LRP       0.499000
     79 H29          0.7900    -1.7030     1.2140 h2         1 LRP       0.111700
     80 H30         -0.5990    -4.7480    -1.4810 hn         1 LRP       0.506500
     81 H31         -0.6040    -4.8190    -3.1950 hn         1 LRP       0.506500
     82 H32          0.3180    -3.1200    -4.4040 hn         1 LRP       0.314500
     83 H33          1.2510     1.8840    -3.5250 h1         1 LRP       0.096700
     84 H34          2.5240     2.4400    -2.4340 h1         1 LRP       0.096700
     85 H35          2.9260     1.3320    -3.7700 h1         1 LRP       0.096700
     86 H36          2.5390     1.3230    -0.2940 h5         1 LRP       0.314000
     87 O3          -1.3790     1.5700    -2.3410 os         1 LRP      -0.575400
@<TRIPOS>BOND
     1     1     4 2   
     2     1     6 1   
     3     2    22 1   
     4     2    54 1   
     5     2    55 1   
     6     2    56 1   
     7     3    16 ar  
     8     3    17 ar  
     9     4    15 1   
    10     4    57 1   
    11     5     6 ar  
    12     5     8 ar  
    13     5    15 1   
    14     6    17 ar  
    15     7    13 1   
    16     7    14 1   
    17     8    16 ar  
    18     9    10 1   
    19    10    11 1   
    20    10    25 1   
    21    10    87 1   
    22    12    13 1   
    23    12    58 1   
    24    12    59 1   
    25    12    87 1   
    26    13    23 1   
    27    13    60 1   
    28    14    15 1   
    29    14    21 1   
    30    14    61 1   
    31    16    62 1   
    32    17    18 1   
    33    18    19 1   
    34    18    20 1   
    35    19    63 1   
    36    19    64 1   
    37    19    65 1   
    38    20    66 1   
    39    20    67 1   
    40    20    68 1   
    41    21    22 1   
    42    21    23 1   
    43    21    69 1   
    44    23    24 1   
    45    23    70 1   
    46    24    71 1   
    47    25    26 1   
    48    26    27 1   
    49    26    28 1   
    50    26    29 1   
    51    29    30 1   
    52    30    31 1   
    53    30    32 1   
    54    30    33 1   
    55    33    34 1   
    56    34    35 1   
    57    34    72 1   
    58    34    73 1   
    59    35    36 1   
    60    35    41 1   
    61    35    74 1   
    62    36    37 1   
    63    36    38 1   
    64    36    75 1   
    65    37    76 1   
    66    38    39 1   
    67    38    40 1   
    68    38    77 1   
    69    39    78 1   
    70    40    41 1   
    71    40    42 1   
    72    40    79 1   
    73    42    43 1   
    74    42    53 2   
    75    43    44 1   
    76    43    50 2   
    77    44    45 2   
    78    45    46 1   
    79    45    47 1   
    80    46    80 1   
    81    46    81 1   
    82    47    48 1   
    83    47    82 1   
    84    48    49 2   
    85    48    50 1   
    86    50    51 1   
    87    51    52 1   
    88    51    53 1   
    89    52    83 1   
    90    52    84 1   
    91    52    85 1   
    92    53    86 1   
@<TRIPOS>SUBSTRUCTURE
     1 LRP         1 TEMP              0 ****  ****    0 ROOT
