@<TRIPOS>MOLECULE
LRQ
   60    64     1     0     0
SMALL
No Charge or Current Charge


@<TRIPOS>ATOM
      1 C1          -0.4670     3.1200    -2.6340 c3         1 LRQ      -0.113100
      2 C2          -0.7770     3.8350    -1.2970 c3         1 LRQ       0.208000
      3 C3           0.2140     4.9990    -1.0710 c3         1 LRQ      -0.113100
      4 C8          -3.5960     2.0210     0.9400 c6         1 LRQ      -0.101400
      5 C9          -3.1780     1.1400     2.1440 c6         1 LRQ      -0.073400
      6 C10         -1.6350     0.9520     2.1970 c6         1 LRQ      -0.095400
      7 C11         -1.0250     0.5000     0.8210 c6         1 LRQ       0.339700
      8 C12         -1.7110    -0.8230     0.4950 cc         1 LRQ      -0.036300
      9 C13         -2.8380    -0.9720    -0.2960 cd         1 LRQ      -0.131400
     10 C14         -3.2140    -2.3640    -0.3460 ca         1 LRQ      -0.084800
     11 C15         -4.2620    -3.0220    -1.0010 ca         1 LRQ      -0.065000
     12 C16         -4.3530    -4.4220    -0.8400 ca         1 LRQ      -0.150000
     13 C19         -2.3020    -3.0290     0.4270 ca         1 LRQ      -0.043200
     14 C21         -3.4780     0.2330    -0.9450 c6         1 LRQ       0.013800
     15 C22          0.5200     0.2590     0.7770 ca         1 LRQ      -0.224300
     16 C24          2.7870     0.2420     1.7340 ca         1 LRQ      -0.199500
     17 C27          1.0970    -0.2020    -0.4340 ca         1 LRQ       0.208500
     18 C30          5.5370    -0.8860    -0.6310 ce         1 LRQ      -0.185200
     19 C31          7.0210    -1.0970    -0.6400 c          1 LRQ       0.693200
     20 F35         -2.0120     4.3910    -1.3910 f          1 LRQ      -0.288000
     21 C4          -0.7310     2.8490    -0.0790 c3         1 LRQ       0.159800
     22 N5          -1.4190     1.5180    -0.2230 n3         1 LRQ      -0.714600
     23 N20         -1.3910    -2.1220     0.9440 na         1 LRQ      -0.211700
     24 C18         -2.3670    -4.4170     0.6060 ca         1 LRQ      -0.126000
     25 C17         -3.4110    -5.1160    -0.0410 ca         1 LRQ      -0.103000
     26 C6          -2.9120     1.5830    -0.3920 c6         1 LRQ       0.184500
     27 F28          0.3360    -0.4430    -1.5270 f          1 LRQ      -0.178500
     28 C26          2.4750    -0.4340    -0.5540 ca         1 LRQ      -0.199500
     29 C25          3.3370    -0.2140     0.5290 ca         1 LRQ       0.068200
     30 C23          1.4100     0.4770     1.8640 ca         1 LRQ       0.208500
     31 F34          0.9920     0.9170     3.0680 f          1 LRQ      -0.178500
     32 C29          4.7900    -0.4480     0.4310 cf         1 LRQ      -0.260200
     33 O32          7.6570    -0.8680     0.3780 o          1 LRQ      -0.713500
     34 O33          7.5300    -1.4940    -1.6760 o          1 LRQ      -0.713500
     35 H1          -1.2160     2.3510    -2.8520 hc         1 LRQ       0.049200
     36 H2          -0.4660     3.8340    -3.4660 hc         1 LRQ       0.049200
     37 H3           0.5170     2.6370    -2.5940 hc         1 LRQ       0.049200
     38 H4           0.1580     5.7240    -1.8910 hc         1 LRQ       0.049200
     39 H5          -0.0130     5.5250    -0.1360 hc         1 LRQ       0.049200
     40 H6           1.2450     4.6280    -1.0130 hc         1 LRQ       0.049200
     41 H7          -4.6880     2.0010     0.8270 hc         1 LRQ       0.036700
     42 H8          -3.3410     3.0680     1.1540 hc         1 LRQ       0.036700
     43 H9          -3.5290     1.5970     3.0780 hc         1 LRQ       0.042200
     44 H10         -3.6770     0.1640     2.0830 hc         1 LRQ       0.042200
     45 H11         -1.1860     1.8980     2.5240 hc         1 LRQ       0.052200
     46 H12         -1.4060     0.2080     2.9720 hc         1 LRQ       0.052200
     47 H13         -4.9780    -2.4760    -1.6100 ha         1 LRQ       0.107000
     48 H14         -5.1530    -4.9710    -1.3320 ha         1 LRQ       0.101000
     49 H15         -3.2890     0.1930    -2.0260 hc         1 LRQ       0.048200
     50 H16         -4.5700     0.2030    -0.8310 hc         1 LRQ       0.048200
     51 H17          3.4320     0.4210     2.5890 ha         1 LRQ       0.141000
     52 H18          5.0490    -1.1140    -1.5750 ha         1 LRQ       0.147000
     53 H19          0.3340     2.6760     0.1210 h1         1 LRQ       0.043700
     54 H20         -1.1130     3.3840     0.8000 h1         1 LRQ       0.043700
     55 H22         -0.6140    -2.3570     1.5500 hn         1 LRQ       0.356000
     56 H23         -1.6390    -4.9410     1.2210 ha         1 LRQ       0.111000
     57 H24         -3.4910    -6.1950     0.0760 ha         1 LRQ       0.102000
     58 H25         -3.1780     2.3340    -1.1470 h1         1 LRQ       0.069700
     59 H26          2.8600    -0.7870    -1.5040 ha         1 LRQ       0.141000
     60 H27          5.3320    -0.2350     1.3560 ha         1 LRQ       0.197000
@<TRIPOS>BOND
     1     1     2 1   
     2     1    35 1   
     3     1    36 1   
     4     1    37 1   
     5     2     3 1   
     6     2    20 1   
     7     2    21 1   
     8     3    38 1   
     9     3    39 1   
    10     3    40 1   
    11     4     5 1   
    12     4    26 1   
    13     4    41 1   
    14     4    42 1   
    15     5     6 1   
    16     5    43 1   
    17     5    44 1   
    18     6     7 1   
    19     6    45 1   
    20     6    46 1   
    21     7     8 1   
    22     7    15 1   
    23     7    22 1   
    24     8     9 2   
    25     8    23 1   
    26     9    10 1   
    27     9    14 1   
    28    10    11 ar  
    29    10    13 ar  
    30    11    12 ar  
    31    11    47 1   
    32    12    25 ar  
    33    12    48 1   
    34    13    23 1   
    35    13    24 ar  
    36    14    26 1   
    37    14    49 1   
    38    14    50 1   
    39    15    17 ar  
    40    15    30 ar  
    41    16    29 ar  
    42    16    30 ar  
    43    16    51 1   
    44    17    27 1   
    45    17    28 ar  
    46    18    19 1   
    47    18    32 2   
    48    18    52 1   
    49    19    33 1   
    50    19    34 1   
    51    21    22 1   
    52    21    53 1   
    53    21    54 1   
    54    22    26 1   
    55    23    55 1   
    56    24    25 ar  
    57    24    56 1   
    58    25    57 1   
    59    26    58 1   
    60    28    29 ar  
    61    28    59 1   
    62    29    32 1   
    63    30    31 1   
    64    32    60 1   
@<TRIPOS>SUBSTRUCTURE
     1 LRQ         1 TEMP              0 ****  ****    0 ROOT
