@<TRIPOS>MOLECULE
LRQ
   60    64     1     0     0
SMALL
abcg2


@<TRIPOS>ATOM
      1 C1           0.3530     2.6800    -2.1700 c3         1 LRQ      -0.113100
      2 C2          -0.4950     3.5540    -1.2740 c3         1 LRQ       0.208000
      3 C3           0.1890     4.8700    -0.9490 c3         1 LRQ      -0.113100
      4 C8          -3.6680     1.8780     1.0410 c6         1 LRQ      -0.101400
      5 C9          -3.1790     0.9910     2.1850 c6         1 LRQ      -0.073400
      6 C10         -1.6530     0.9030     2.2220 c6         1 LRQ      -0.095400
      7 C11         -1.1070     0.5330     0.8210 c6         1 LRQ       0.339700
      8 C12         -1.7810    -0.7530     0.4280 cc         1 LRQ      -0.036300
      9 C13         -2.8690    -0.8580    -0.3760 cd         1 LRQ      -0.131400
     10 C14         -3.2280    -2.2410    -0.4000 ca         1 LRQ      -0.084800
     11 C15         -4.2380    -2.9760    -1.0300 ca         1 LRQ      -0.065000
     12 C16         -4.3000    -4.3430    -0.8260 ca         1 LRQ      -0.150000
     13 C19         -2.3030    -2.9160     0.4310 ca         1 LRQ      -0.043200
     14 C21         -3.4800     0.3410    -1.0090 c6         1 LRQ       0.013800
     15 C22          0.4060     0.3260     0.7250 ca         1 LRQ      -0.224300
     16 C24          2.7200     0.4460     1.5230 ca         1 LRQ      -0.199500
     17 C27          0.9550    -0.2390    -0.4340 ca         1 LRQ       0.208500
     18 C30          5.2920    -0.7610    -0.8730 ce         1 LRQ      -0.185200
     19 C31          6.7950    -0.9240    -0.9410 c          1 LRQ       0.693200
     20 F35         -1.6660     3.8750    -2.0040 f          1 LRQ      -0.288000
     21 C4          -0.9170     2.8560     0.0190 c3         1 LRQ       0.159800
     22 N5          -1.5160     1.5470    -0.1690 n3         1 LRQ      -0.714600
     23 N20         -1.4400    -1.9800     0.9290 na         1 LRQ      -0.211700
     24 C18         -2.3610    -4.2920     0.6370 ca         1 LRQ      -0.126000
     25 C17         -3.3690    -4.9930    -0.0010 ca         1 LRQ      -0.103000
     26 C6          -2.9790     1.6040    -0.3050 c6         1 LRQ       0.184500
     27 F28          0.1300    -0.6050    -1.4200 f          1 LRQ      -0.178500
     28 C26          2.2950    -0.4610    -0.6410 ca         1 LRQ      -0.199500
     29 C25          3.2140    -0.1110     0.3500 ca         1 LRQ       0.068200
     30 C23          1.3620     0.6500     1.6830 ca         1 LRQ       0.208500
     31 F34          0.9940     1.2100     2.8440 f          1 LRQ      -0.178500
     32 C29          4.6570    -0.3020     0.2070 cf         1 LRQ      -0.260200
     33 O32          7.4570    -0.6430     0.0770 o          1 LRQ      -0.713500
     34 O33          7.2350    -1.3340    -2.0340 o          1 LRQ      -0.713500
     35 H1          -0.1780     1.7710    -2.4400 hc         1 LRQ       0.049200
     36 H2           0.6330     3.2130    -3.0790 hc         1 LRQ       0.049200
     37 H3           1.2720     2.3940    -1.6560 hc         1 LRQ       0.049200
     38 H4           0.4170     5.4230    -1.8610 hc         1 LRQ       0.049200
     39 H5          -0.4360     5.4990    -0.3120 hc         1 LRQ       0.049200
     40 H6           1.1290     4.6930    -0.4280 hc         1 LRQ       0.049200
     41 H7          -4.7500     1.7840     0.9230 hc         1 LRQ       0.036700
     42 H8          -3.4890     2.9220     1.3150 hc         1 LRQ       0.036700
     43 H9          -3.5280     1.4000     3.1360 hc         1 LRQ       0.042200
     44 H10         -3.6100    -0.0090     2.1100 hc         1 LRQ       0.042200
     45 H11         -1.2480     1.8670     2.5330 hc         1 LRQ       0.052200
     46 H12         -1.3460     0.1660     2.9670 hc         1 LRQ       0.052200
     47 H13         -4.9630    -2.4820    -1.6660 ha         1 LRQ       0.107000
     48 H14         -5.0760    -4.9230    -1.3070 ha         1 LRQ       0.101000
     49 H15         -3.2190     0.3960    -2.0720 hc         1 LRQ       0.048200
     50 H16         -4.5720     0.3050    -0.9610 hc         1 LRQ       0.048200
     51 H17          3.3910     0.7340     2.3230 ha         1 LRQ       0.141000
     52 H18          4.7360    -1.0380    -1.7640 ha         1 LRQ       0.147000
     53 H19         -0.0130     2.7730     0.6260 h1         1 LRQ       0.043700
     54 H20         -1.5700     3.5430     0.5760 h1         1 LRQ       0.043700
     55 H22         -0.6580    -2.1730     1.5330 hn         1 LRQ       0.356000
     56 H23         -1.6460    -4.7980     1.2750 ha         1 LRQ       0.111000
     57 H24         -3.4420    -6.0640     0.1420 ha         1 LRQ       0.102000
     58 H25         -3.2000     2.4420    -0.9640 h1         1 LRQ       0.069700
     59 H26          2.6110    -0.9070    -1.5750 ha         1 LRQ       0.141000
     60 H27          5.2500    -0.0300     1.0740 ha         1 LRQ       0.197000
@<TRIPOS>BOND
     1     1     2 1   
     2     1    35 1   
     3     1    36 1   
     4     1    37 1   
     5     2     3 1   
     6     2    20 1   
     7     2    21 1   
     8     3    38 1   
     9     3    39 1   
    10     3    40 1   
    11     4     5 1   
    12     4    26 1   
    13     4    41 1   
    14     4    42 1   
    15     5     6 1   
    16     5    43 1   
    17     5    44 1   
    18     6     7 1   
    19     6    45 1   
    20     6    46 1   
    21     7     8 1   
    22     7    15 1   
    23     7    22 1   
    24     8     9 2   
    25     8    23 1   
    26     9    10 1   
    27     9    14 1   
    28    10    11 ar  
    29    10    13 ar  
    30    11    12 ar  
    31    11    47 1   
    32    12    25 ar  
    33    12    48 1   
    34    13    23 1   
    35    13    24 ar  
    36    14    26 1   
    37    14    49 1   
    38    14    50 1   
    39    15    17 ar  
    40    15    30 ar  
    41    16    29 ar  
    42    16    30 ar  
    43    16    51 1   
    44    17    27 1   
    45    17    28 ar  
    46    18    19 1   
    47    18    32 2   
    48    18    52 1   
    49    19    33 1   
    50    19    34 1   
    51    21    22 1   
    52    21    53 1   
    53    21    54 1   
    54    22    26 1   
    55    23    55 1   
    56    24    25 ar  
    57    24    56 1   
    58    25    57 1   
    59    26    58 1   
    60    28    29 ar  
    61    28    59 1   
    62    29    32 1   
    63    30    31 1   
    64    32    60 1   
@<TRIPOS>SUBSTRUCTURE
     1 LRQ         1 TEMP              0 ****  ****    0 ROOT
