@<TRIPOS>MOLECULE
LRR
   36    37     1     0     0
SMALL
bcc


@<TRIPOS>ATOM
      1 N1          67.1420     3.3300    83.6170 n          1 LRR      -0.484800
      2 C4          67.9160    -0.9610    82.5680 c3         1 LRR      -0.033100
      3 C5          69.0010    -0.9000    83.6080 ca         1 LRR      -0.083300
      4 C6          70.2360    -0.3300    83.2970 ca         1 LRR      -0.130500
      5 C7          71.2270    -0.2040    84.2600 ca         1 LRR      -0.127500
      6 C8          70.9990    -0.6470    85.5580 ca         1 LRR      -0.130000
      7 C10         68.7880    -1.3470    84.9100 ca         1 LRR      -0.130500
      8 C13         68.0200     5.3010    82.5010 c6         1 LRR       0.111900
      9 O1          65.0770     2.7560    82.9150 o          1 LRR      -0.605100
     10 C1          66.1780     2.4220    83.3330 c          1 LRR       0.679100
     11 C2          66.5270     0.9600    83.5100 c3         1 LRR      -0.160400
     12 C3          67.3050     0.4180    82.3050 c3         1 LRR      -0.068400
     13 C9          69.7770    -1.2210    85.8790 ca         1 LRR      -0.127500
     14 C11         68.4730     3.0460    84.1220 c6         1 LRR       0.059000
     15 C12         69.5150     3.6590    83.2000 c6         1 LRR       0.111900
     16 O2          69.3050     5.0390    83.0210 os         1 LRR      -0.398600
     17 C14         66.9270     4.7500    83.4010 c6         1 LRR       0.059000
     18 H1          67.1340    -1.6570    82.8790 hc         1 LRR       0.052200
     19 H2          68.3250    -1.3430    81.6300 hc         1 LRR       0.052200
     20 H3          70.4230     0.0200    82.2880 ha         1 LRR       0.130000
     21 H4          72.1780     0.2400    83.9980 ha         1 LRR       0.131500
     22 H5          71.7690    -0.5470    86.3110 ha         1 LRR       0.132000
     23 H6          67.8360    -1.7960    85.1700 ha         1 LRR       0.130000
     24 H7          67.9140     4.8660    81.4960 h1         1 LRR       0.051950
     25 H8          67.9190     6.3830    82.4120 h1         1 LRR       0.051950
     26 H9          65.5910     0.4110    83.6090 hc         1 LRR       0.067700
     27 H10         67.0820     0.7900    84.4340 hc         1 LRR       0.067700
     28 H11         68.1040     1.1070    82.0190 hc         1 LRR       0.048700
     29 H12         66.6340     0.3600    81.4450 hc         1 LRR       0.048700
     30 H13         69.5900    -1.5720    86.8860 ha         1 LRR       0.131500
     31 H14         68.5720     3.4670    85.1280 h1         1 LRR       0.064450
     32 H15         68.6560     1.9780    84.2010 h1         1 LRR       0.064450
     33 H16         69.4940     3.1340    82.2340 h1         1 LRR       0.051950
     34 H17         70.5100     3.5310    83.6310 h1         1 LRR       0.051950
     35 H18         66.9410     5.2690    84.3660 h1         1 LRR       0.064450
     36 H19         65.9540     4.9150    82.9490 h1         1 LRR       0.064450
@<TRIPOS>BOND
     1     1    10 1   
     2     1    14 1   
     3     1    17 1   
     4     2     3 1   
     5     2    12 1   
     6     2    18 1   
     7     2    19 1   
     8     3     4 ar  
     9     3     7 ar  
    10     4     5 ar  
    11     4    20 1   
    12     5     6 ar  
    13     5    21 1   
    14     6    13 ar  
    15     6    22 1   
    16     7    13 ar  
    17     7    23 1   
    18     8    16 1   
    19     8    17 1   
    20     8    24 1   
    21     8    25 1   
    22     9    10 2   
    23    10    11 1   
    24    11    12 1   
    25    11    26 1   
    26    11    27 1   
    27    12    28 1   
    28    12    29 1   
    29    13    30 1   
    30    14    15 1   
    31    14    31 1   
    32    14    32 1   
    33    15    16 1   
    34    15    33 1   
    35    15    34 1   
    36    17    35 1   
    37    17    36 1   
@<TRIPOS>SUBSTRUCTURE
     1 LRR         1 TEMP              0 ****  ****    0 ROOT
