@<TRIPOS>MOLECULE
LRR
   36    37     1     0     0
SMALL
No Charge or Current Charge


@<TRIPOS>ATOM
      1 N1          67.1170     3.3320    83.6580 n          1 LRR      -0.417800
      2 C4          67.8640    -1.0940    82.6320 c3         1 LRR      -0.033100
      3 C5          68.9890    -0.9090    83.6470 ca         1 LRR      -0.083300
      4 C6          70.2090    -0.3270    83.2500 ca         1 LRR      -0.112500
      5 C7          71.2380    -0.1260    84.1870 ca         1 LRR      -0.109500
      6 C8          71.0540    -0.5100    85.5260 ca         1 LRR      -0.112000
      7 C10         68.8120    -1.2960    84.9900 ca         1 LRR      -0.112500
      8 C13         68.0730     5.4230    82.6360 c6         1 LRR       0.135100
      9 O1          65.2100     2.7880    82.4930 o          1 LRR      -0.605100
     10 C1          66.1820     2.4040    83.1310 c          1 LRR       0.612100
     11 C2          66.3810     0.9010    83.3850 c3         1 LRR      -0.160400
     12 C3          67.1990     0.2450    82.2410 c3         1 LRR      -0.068400
     13 C9          69.8410    -1.0960    85.9270 ca         1 LRR      -0.109500
     14 C11         68.4960     2.9670    84.1210 c6         1 LRR       0.059000
     15 C12         69.5840     3.6430    83.2470 c6         1 LRR       0.135100
     16 O2          69.3620     5.0700    83.1880 os         1 LRR      -0.445000
     17 C14         66.9400     4.8070    83.4980 c6         1 LRR       0.059000
     18 H1          67.0990    -1.7800    83.0150 hc         1 LRR       0.052200
     19 H2          68.2660    -1.5640    81.7260 hc         1 LRR       0.052200
     20 H3          70.3590    -0.0240    82.2160 ha         1 LRR       0.112000
     21 H4          72.1760     0.3270    83.8750 ha         1 LRR       0.113500
     22 H5          71.8490    -0.3540    86.2510 ha         1 LRR       0.114000
     23 H6          67.8740    -1.7430    85.3120 ha         1 LRR       0.112000
     24 H7          68.0060     5.0530    81.6030 h1         1 LRR       0.051950
     25 H8          67.9770     6.5180    82.6160 h1         1 LRR       0.051950
     26 H9          65.4040     0.4070    83.4440 hc         1 LRR       0.067700
     27 H10         66.9140     0.7580    84.3300 hc         1 LRR       0.067700
     28 H11         67.9790     0.9380    81.9000 hc         1 LRR       0.048700
     29 H12         66.5380     0.0830    81.3810 hc         1 LRR       0.048700
     30 H13         69.6980    -1.3930    86.9630 ha         1 LRR       0.113500
     31 H14         68.6190     3.2930    85.1640 h1         1 LRR       0.064450
     32 H15         68.6700     1.8860    84.1030 h1         1 LRR       0.064450
     33 H16         69.5590     3.2290    82.2280 h1         1 LRR       0.051950
     34 H17         70.5800     3.4490    83.6700 h1         1 LRR       0.051950
     35 H18         66.9500     5.2770    84.4920 h1         1 LRR       0.064450
     36 H19         65.9700     5.0450    83.0420 h1         1 LRR       0.064450
@<TRIPOS>BOND
     1     1    10 1   
     2     1    14 1   
     3     1    17 1   
     4     2     3 1   
     5     2    12 1   
     6     2    18 1   
     7     2    19 1   
     8     3     4 ar  
     9     3     7 ar  
    10     4     5 ar  
    11     4    20 1   
    12     5     6 ar  
    13     5    21 1   
    14     6    13 ar  
    15     6    22 1   
    16     7    13 ar  
    17     7    23 1   
    18     8    16 1   
    19     8    17 1   
    20     8    24 1   
    21     8    25 1   
    22     9    10 2   
    23    10    11 1   
    24    11    12 1   
    25    11    26 1   
    26    11    27 1   
    27    12    28 1   
    28    12    29 1   
    29    13    30 1   
    30    14    15 1   
    31    14    31 1   
    32    14    32 1   
    33    15    16 1   
    34    15    33 1   
    35    15    34 1   
    36    17    35 1   
    37    17    36 1   
@<TRIPOS>SUBSTRUCTURE
     1 LRR         1 TEMP              0 ****  ****    0 ROOT
