@<TRIPOS>MOLECULE
LRT
   39    41     1     0     0
SMALL
No Charge or Current Charge


@<TRIPOS>ATOM
      1 C           15.6360     3.4880    18.7470 ca         1 LRT       0.627900
      2 N           16.5300     4.2850    18.1480 nv         1 LRT      -1.057900
      3 O           11.1960     0.6750    20.2960 o          1 LRT      -0.536000
      4 C1          15.4050     1.3510    19.4800 ca         1 LRT       0.403900
      5 C10         11.7520     4.5430    20.0100 ca         1 LRT       0.000000
      6 C11         12.5780     5.5150    19.4330 ca         1 LRT      -0.157000
      7 C12         13.8620     5.1780    18.9900 ca         1 LRT      -0.023000
      8 C13         14.3370     3.8590    19.1490 ca         1 LRT      -0.147000
      9 C2          14.0960     1.5940    19.9190 ca         1 LRT      -0.218000
     10 C3          13.5150     2.8700    19.7420 ca         1 LRT       0.110000
     11 C4          12.1900     3.2060    20.1440 ca         1 LRT      -0.275500
     12 C5           9.3290     2.6190    18.8540 c3         1 LRT       0.240800
     13 C6           8.6260     1.4030    18.2130 c3         1 LRT      -0.089400
     14 C7           7.0870     1.5310    18.1950 c3         1 LRT       0.166800
     15 C8           6.9280     2.3390    20.5920 c3         1 LRT       0.155800
     16 C9           8.3630     2.0190    21.1090 c3         1 LRT       0.234800
     17 N1          16.1720     2.2870    18.8890 nb         1 LRT      -0.767000
     18 N2           9.5000     2.5770    20.3280 n3         1 LRT      -0.796500
     19 N3           6.4750     1.3930    19.5320 n7         1 LRT      -0.852400
     20 O1          11.0390     2.2440    22.3090 o          1 LRT      -0.536000
     21 S           11.0190     2.0170    20.8600 sy         1 LRT       1.192600
     22 H1          17.3180     3.7840    17.7580 hn         1 LRT       0.477000
     23 H2          16.1720     5.0520    17.5930 hn         1 LRT       0.477000
     24 H3          15.8570     0.3680    19.6120 h4         1 LRT       0.021100
     25 H4          10.7600     4.8380    20.3480 ha         1 LRT       0.116000
     26 H5          12.2190     6.5370    19.3280 ha         1 LRT       0.118000
     27 H6          14.4850     5.9510    18.5480 ha         1 LRT       0.109000
     28 H7          13.5820     0.7760    20.4040 ha         1 LRT       0.143000
     29 H9           8.7550     3.5170    18.5880 h1         1 LRT       0.047200
     30 H10          8.9620     1.3340    17.1720 hc         1 LRT       0.061200
     31 H11          8.9310     0.4690    18.6990 hc         1 LRT       0.061200
     32 H12          6.8140     2.4980    17.7490 h1         1 LRT       0.028200
     33 H13          6.6860     0.7500    17.5350 h1         1 LRT       0.028200
     34 H14          6.2500     2.2470    21.4510 h1         1 LRT       0.032200
     35 H15          6.8740     3.3820    20.2520 h1         1 LRT       0.032200
     36 H16          8.4510     0.9260    21.1820 h1         1 LRT       0.055700
     37 H17          8.4230     2.4020    22.1360 h1         1 LRT       0.055700
     38 H18          5.4600     1.5130    19.4180 hn         1 LRT       0.415000
     39 H8          10.3020     2.7410    18.3610 h1         1 LRT       0.047200
@<TRIPOS>BOND
     1     1     2 1   
     2     1     8 ar  
     3     1    17 ar  
     4     2    22 1   
     5     2    23 1   
     6     3    21 2   
     7     4     9 ar  
     8     4    17 ar  
     9     4    24 1   
    10     5     6 ar  
    11     5    11 ar  
    12     5    25 1   
    13     6     7 ar  
    14     6    26 1   
    15     7     8 ar  
    16     7    27 1   
    17     8    10 ar  
    18     9    10 ar  
    19     9    28 1   
    20    10    11 ar  
    21    11    21 1   
    22    12    13 1   
    23    12    18 1   
    24    12    29 1   
    25    12    39 1   
    26    13    14 1   
    27    13    30 1   
    28    13    31 1   
    29    14    19 1   
    30    14    32 1   
    31    14    33 1   
    32    15    16 1   
    33    15    19 1   
    34    15    34 1   
    35    15    35 1   
    36    16    18 1   
    37    16    36 1   
    38    16    37 1   
    39    18    21 1   
    40    19    38 1   
    41    20    21 2   
@<TRIPOS>SUBSTRUCTURE
     1 LRT         1 TEMP              0 ****  ****    0 ROOT
