@<TRIPOS>MOLECULE
LRT
   39    41     1     0     0
SMALL
bcc


@<TRIPOS>ATOM
      1 C           15.8540     3.5710    19.4600 ca         1 LRT       0.693200
      2 N           16.7410     4.5870    19.3200 nv         1 LRT      -0.947500
      3 O           11.2090     0.7810    18.5340 o          1 LRT      -0.606800
      4 C1          15.4950     1.3460    19.8320 ca         1 LRT       0.469200
      5 C10         11.6800     4.2550    19.3660 ca         1 LRT      -0.018000
      6 C11         12.5600     5.3370    19.2290 ca         1 LRT      -0.175000
      7 C12         13.9110     5.1220    19.2630 ca         1 LRT      -0.041000
      8 C13         14.4350     3.8260    19.4300 ca         1 LRT      -0.212300
      9 C2          14.1360     1.4450    19.7940 ca         1 LRT      -0.301300
     10 C3          13.5600     2.7230    19.5890 ca         1 LRT       0.110000
     11 C4          12.1620     2.9850    19.5440 ca         1 LRT      -0.275500
     12 C5           8.8920     2.4760    18.3200 c3         1 LRT       0.240800
     13 C6           7.9250     1.3540    17.9650 c3         1 LRT      -0.089400
     14 C7           6.6570     1.3120    18.8070 c3         1 LRT       0.166800
     15 C8           7.3360     2.5990    20.7410 c3         1 LRT       0.155800
     16 C9           8.8510     2.7360    20.8390 c3         1 LRT       0.234800
     17 N1          16.3470     2.3710    19.6650 nb         1 LRT      -0.767000
     18 N2           9.5220     2.2740    19.6250 n3         1 LRT      -0.796500
     19 N3           6.9120     1.3070    20.2390 n7         1 LRT      -0.797200
     20 O1          11.2030     1.0520    21.0240 o          1 LRT      -0.606800
     21 S           11.0120     1.6310    19.7010 sy         1 LRT       1.334200
     22 H1          17.7010     4.3110    19.1940 hn         1 LRT       0.421800
     23 H2          16.4840     5.4170    18.8150 hn         1 LRT       0.421800
     24 H3          15.9560     0.3800    20.0030 h4         1 LRT       0.021100
     25 H4          10.6150     4.4430    19.3300 ha         1 LRT       0.134000
     26 H5          12.1660     6.3350    19.1000 ha         1 LRT       0.136000
     27 H6          14.5690     5.9750    19.1690 ha         1 LRT       0.127000
     28 H7          13.5430     0.5540    19.9300 ha         1 LRT       0.161000
     29 H9           8.3920     3.4480    18.3320 h1         1 LRT       0.047200
     30 H10          7.6300     1.4750    16.9200 hc         1 LRT       0.061200
     31 H11          8.4600     0.4050    18.0350 hc         1 LRT       0.061200
     32 H12          6.0160     2.1590    18.5170 h1         1 LRT       0.028200
     33 H13          6.1060     0.4040    18.5560 h1         1 LRT       0.028200
     34 H14          6.9530     2.7440    21.7520 h1         1 LRT       0.032200
     35 H15          6.9240     3.4240    20.1410 h1         1 LRT       0.032200
     36 H16          9.2050     2.1430    21.6790 h1         1 LRT       0.055700
     37 H17          9.0930     3.7830    21.0470 h1         1 LRT       0.055700
     38 H18          6.0630     1.0350    20.7130 hn         1 LRT       0.359800
     39 H8           9.6590     2.5530    17.5510 h1         1 LRT       0.047200
@<TRIPOS>BOND
     1     1     2 1   
     2     1     8 ar  
     3     1    17 ar  
     4     2    22 1   
     5     2    23 1   
     6     3    21 2   
     7     4     9 ar  
     8     4    17 ar  
     9     4    24 1   
    10     5     6 ar  
    11     5    11 ar  
    12     5    25 1   
    13     6     7 ar  
    14     6    26 1   
    15     7     8 ar  
    16     7    27 1   
    17     8    10 ar  
    18     9    10 ar  
    19     9    28 1   
    20    10    11 ar  
    21    11    21 1   
    22    12    13 1   
    23    12    18 1   
    24    12    29 1   
    25    12    39 1   
    26    13    14 1   
    27    13    30 1   
    28    13    31 1   
    29    14    19 1   
    30    14    32 1   
    31    14    33 1   
    32    15    16 1   
    33    15    19 1   
    34    15    34 1   
    35    15    35 1   
    36    16    18 1   
    37    16    36 1   
    38    16    37 1   
    39    18    21 1   
    40    19    38 1   
    41    20    21 2   
@<TRIPOS>SUBSTRUCTURE
     1 LRT         1 TEMP              0 ****  ****    0 ROOT
