@<TRIPOS>MOLECULE
LRV
  117   123     1     0     0
SMALL
abcg2


@<TRIPOS>ATOM
      1 C10         31.3100   -17.5300    -6.6510 c6         1 LRV       0.151300
      2 C15         23.4520   -17.3160    -7.1570 c6         1 LRV       0.110300
      3 C20         28.1180   -11.7810   -10.1310 c5         1 LRV      -0.093400
      4 C21         30.0680   -13.1870   -10.3970 c5         1 LRV      -0.048700
      5 C22         28.5700   -11.5900   -11.5910 c5         1 LRV      -0.037000
      6 C24         27.8500   -12.5380   -12.5970 c6         1 LRV      -0.039700
      7 C11         30.5360   -17.4520    -7.9670 c6         1 LRV       0.179300
      8 C14         22.9580   -15.1200    -6.0480 c6         1 LRV       0.134300
      9 C16         24.7930   -17.3040    -6.4290 c6         1 LRV       0.144300
     10 C18         25.3010   -18.6790    -6.0410 c3         1 LRV       0.157600
     11 C19         28.6220   -13.1790    -9.8140 c5         1 LRV       0.188000
     12 C23         27.7220   -14.1740   -10.5470 c6         1 LRV      -0.093400
     13 C25         25.1540    -8.8630   -13.6560 c          1 LRV       0.718000
     14 C1          27.5610   -13.3830    -7.6380 c6         1 LRV       0.393300
     15 O1          28.6960   -13.5000    -8.4110 os         1 LRV      -0.448000
     16 C2          27.6390   -14.4020    -6.4980 c6         1 LRV       0.149300
     17 O2          27.5480   -15.7250    -7.0140 os         1 LRV      -0.420000
     18 O5          27.5580   -12.0710    -7.0680 os         1 LRV      -0.480000
     19 C5          26.4260   -11.7890    -6.2460 c6         1 LRV       0.183300
     20 C4          26.4770   -12.7190    -5.0330 c6         1 LRV       0.119300
     21 O4          25.3530   -12.4460    -4.2030 oh         1 LRV      -0.713000
     22 C3          26.4970   -14.1790    -5.5040 c6         1 LRV       0.128300
     23 C6          26.4840   -10.3290    -5.8640 c3         1 LRV       0.170600
     24 O6          26.2210    -9.5410    -7.0270 oh         1 LRV      -0.698000
     25 C7          28.5820   -16.6440    -6.8540 c6         1 LRV       0.417300
     26 C8          29.2580   -16.6720    -5.4830 c6         1 LRV       0.063300
     27 O8          28.2690   -16.9720    -4.5030 oh         1 LRV      -0.714000
     28 O11         29.5740   -16.4020    -7.8440 os         1 LRV      -0.471000
     29 O10         32.2910   -18.5540    -6.7430 oh         1 LRV      -0.685000
     30 C9          30.3520   -17.7480    -5.4810 c6         1 LRV       0.105300
     31 O9          29.7750   -19.0450    -5.5780 oh         1 LRV      -0.643000
     32 C12         31.3900   -17.1140    -9.1830 c3         1 LRV       0.170600
     33 O15         31.8240   -18.3290    -9.7940 oh         1 LRV      -0.719000
     34 C13         24.3370   -15.2130    -5.3770 c6         1 LRV       0.355300
     35 O16         25.2640   -14.5010    -6.1540 os         1 LRV      -0.447000
     36 O17         22.5720   -13.7760    -6.2970 oh         1 LRV      -0.682000
     37 O18         24.7060   -16.5650    -5.2030 os         1 LRV      -0.479000
     38 O19         22.4340   -18.0090    -6.4230 oh         1 LRV      -0.738000
     39 C17         22.9480   -15.8860    -7.3680 c6         1 LRV       0.178300
     40 O20         21.6560   -15.9010    -7.9630 oh         1 LRV      -0.634000
     41 C26         24.6940   -10.9260   -15.1260 c6         1 LRV      -0.060400
     42 C28         28.4040   -10.1210   -12.0150 c6         1 LRV      -0.057400
     43 C29         27.7880   -13.9960   -12.0690 c6         1 LRV      -0.060400
     44 C30         30.0430   -12.0560   -11.4620 c5         1 LRV      -0.076400
     45 C31         25.7720    -9.9190   -14.6350 c6         1 LRV      -0.158000
     46 C32         26.5440   -11.9480   -13.1970 c6         1 LRV      -0.020000
     47 C33         31.1670   -12.9630    -9.3620 c3         1 LRV      -0.072100
     48 C34         25.2560   -12.3140   -15.4190 c6         1 LRV      -0.070400
     49 C35         28.1840    -9.9360   -13.5100 c6         1 LRV      -0.053400
     50 C36         25.8970   -12.9680   -14.1790 c6         1 LRV      -0.065400
     51 C37         26.9810   -10.7340   -14.0760 c6         1 LRV      -0.013700
     52 C38         26.2690    -9.1180   -15.8560 c3         1 LRV      -0.063100
     53 O22         25.9430    -8.0370   -13.1260 o          1 LRV      -0.736000
     54 O23         23.9040    -8.8490   -13.5080 o          1 LRV      -0.736000
     55 H11         31.7920   -16.5560    -6.5020 h1         1 LRV       0.041700
     56 H22         23.5870   -17.7850    -8.1330 h1         1 LRV       0.071700
     57 H37         27.0480   -11.6710    -9.9730 hc         1 LRV       0.065700
     58 H57         30.2510   -14.1530   -10.8710 hc         1 LRV       0.040700
     59 H31         28.5180   -12.5840   -13.4630 hc         1 LRV       0.031700
     60 H10         30.0260   -18.4040    -8.1560 h1         1 LRV       0.083700
     61 H19         22.2490   -15.5980    -5.3630 h1         1 LRV       0.050700
     62 H21         25.5270   -16.8280    -7.0810 h1         1 LRV       0.094700
     63 H26         26.2390   -18.5590    -5.4930 h1         1 LRV       0.037700
     64 H27         24.5760   -19.1730    -5.3870 h1         1 LRV       0.037700
     65 H36         26.6940   -14.0390   -10.2020 hc         1 LRV       0.045200
     66 H34         28.0210   -15.1920   -10.2870 hc         1 LRV       0.045200
     67 H1          26.6420   -13.5240    -8.2150 h2         1 LRV       0.068700
     68 H2          28.5880   -14.2280    -5.9910 h1         1 LRV       0.057700
     69 H5          25.5010   -11.9760    -6.8040 h1         1 LRV       0.091700
     70 H4          27.4080   -12.5220    -4.4900 h1         1 LRV       0.038700
     71 HD          25.4830   -12.8840    -3.3530 ho         1 LRV       0.494000
     72 H3          26.6450   -14.8460    -4.6530 h1         1 LRV       0.052700
     73 H6C2        27.4770   -10.1040    -5.4590 h1         1 LRV       0.027700
     74 H6C1        25.7380   -10.1370    -5.0900 h1         1 LRV       0.027700
     75 H6          26.2780    -8.6100    -6.7790 ho         1 LRV       0.501000
     76 H7          28.1180   -17.6160    -7.0480 h2         1 LRV       0.088700
     77 H8          29.7260   -15.7060    -5.2810 h1         1 LRV       0.057700
     78 H9          28.6190   -16.7470    -3.6320 ho         1 LRV       0.503000
     79 H12         32.8180   -18.5430    -5.9340 ho         1 LRV       0.496000
     80 H13         30.9170   -17.6640    -4.5430 h1         1 LRV       0.025700
     81 H14         29.0190   -19.0570    -4.9730 ho         1 LRV       0.449000
     82 H16         32.2460   -16.4980    -8.8900 h1         1 LRV       0.041700
     83 H15         30.7720   -16.5340    -9.8750 h1         1 LRV       0.041700
     84 H17         32.4520   -18.1040   -10.4910 ho         1 LRV       0.503000
     85 H18         24.2910   -14.8020    -4.3670 h2         1 LRV       0.057700
     86 H20         22.5510   -13.3030    -5.4560 ho         1 LRV       0.501000
     87 H23         22.4390   -18.9370    -6.6850 ho         1 LRV       0.507000
     88 H24         23.6090   -15.3800    -8.0730 h1         1 LRV       0.108700
     89 H25         21.1530   -16.5880    -7.4990 ho         1 LRV       0.443000
     90 H51         24.2120   -10.5250   -16.0220 hc         1 LRV       0.045700
     91 H52         23.9070   -11.0040   -14.3800 hc         1 LRV       0.045700
     92 H40         29.2840    -9.5550   -11.6940 hc         1 LRV       0.049700
     93 H41         27.5560    -9.6880   -11.4840 hc         1 LRV       0.049700
     94 H33         26.9530   -14.5290   -12.5210 hc         1 LRV       0.028700
     95 H30         28.6860   -14.5080   -12.4230 hc         1 LRV       0.028700
     96 H29         30.4670   -12.3740   -12.4160 hc         1 LRV       0.037200
     97 H48         30.6460   -11.2180   -11.1010 hc         1 LRV       0.037200
     98 H32         31.2210   -13.7820    -8.6450 hc         1 LRV       0.027700
     99 H35         32.1330   -12.8880    -9.8670 hc         1 LRV       0.027700
    100 H58         31.0040   -12.0370    -8.8070 hc         1 LRV       0.027700
    101 H50         24.4620   -12.9590   -15.8020 hc         1 LRV       0.014700
    102 H49         25.9970   -12.2450   -16.2200 hc         1 LRV       0.014700
    103 H38         29.0880   -10.2600   -14.0340 hc         1 LRV       0.040200
    104 H39         28.0540    -8.8780   -13.7160 hc         1 LRV       0.040200
    105 H44         25.1460   -13.5540   -13.6430 hc         1 LRV       0.018700
    106 H45         26.6540   -13.6780   -14.5190 hc         1 LRV       0.018700
    107 H43         27.3870   -11.2130   -14.9720 hc         1 LRV       0.003700
    108 H47         27.0900    -8.4510   -15.5940 hc         1 LRV       0.015033
    109 H55         26.6190    -9.8000   -16.6370 hc         1 LRV       0.015033
    110 H56         25.4610    -8.5140   -16.2750 hc         1 LRV       0.015033
    111 C27         25.5150   -11.6080   -12.1060 c3         1 LRV      -0.078100
    112 H53         25.8240   -10.7780   -11.4750 hc         1 LRV       0.040367
    113 H54         24.5540   -11.3430   -12.5370 hc         1 LRV       0.040367
    114 H46         25.3590   -12.4790   -11.4650 hc         1 LRV       0.040367
    115 O21         25.5000   -19.4280    -7.2410 oh         1 LRV      -0.732000
    116 H42         28.6290   -11.0430    -9.5080 hc         1 LRV       0.065700
    117 H28         25.8270   -20.3020    -7.0010 ho         1 LRV       0.505000
@<TRIPOS>BOND
     1     1     7 1   
     2     1    29 1   
     3     1    30 1   
     4     1    55 1   
     5     2     9 1   
     6     2    38 1   
     7     2    39 1   
     8     2    56 1   
     9     3     5 1   
    10     3    11 1   
    11     3    57 1   
    12     3   116 1   
    13     4    11 1   
    14     4    44 1   
    15     4    47 1   
    16     4    58 1   
    17     5     6 1   
    18     5    42 1   
    19     5    44 1   
    20     6    43 1   
    21     6    46 1   
    22     6    59 1   
    23     7    28 1   
    24     7    32 1   
    25     7    60 1   
    26     8    34 1   
    27     8    36 1   
    28     8    39 1   
    29     8    61 1   
    30     9    10 1   
    31     9    37 1   
    32     9    62 1   
    33    10    63 1   
    34    10    64 1   
    35    10   115 1   
    36    11    12 1   
    37    11    15 1   
    38    12    43 1   
    39    12    65 1   
    40    12    66 1   
    41    13    45 1   
    42    13    53 1   
    43    13    54 1   
    44    14    15 1   
    45    14    16 1   
    46    14    18 1   
    47    14    67 1   
    48    16    17 1   
    49    16    22 1   
    50    16    68 1   
    51    17    25 1   
    52    18    19 1   
    53    19    20 1   
    54    19    23 1   
    55    19    69 1   
    56    20    21 1   
    57    20    22 1   
    58    20    70 1   
    59    21    71 1   
    60    22    35 1   
    61    22    72 1   
    62    23    24 1   
    63    23    73 1   
    64    23    74 1   
    65    24    75 1   
    66    25    26 1   
    67    25    28 1   
    68    25    76 1   
    69    26    27 1   
    70    26    30 1   
    71    26    77 1   
    72    27    78 1   
    73    29    79 1   
    74    30    31 1   
    75    30    80 1   
    76    31    81 1   
    77    32    33 1   
    78    32    82 1   
    79    32    83 1   
    80    33    84 1   
    81    34    35 1   
    82    34    37 1   
    83    34    85 1   
    84    36    86 1   
    85    38    87 1   
    86    39    40 1   
    87    39    88 1   
    88    40    89 1   
    89    41    45 1   
    90    41    48 1   
    91    41    90 1   
    92    41    91 1   
    93    42    49 1   
    94    42    92 1   
    95    42    93 1   
    96    43    94 1   
    97    43    95 1   
    98    44    96 1   
    99    44    97 1   
   100    45    51 1   
   101    45    52 1   
   102    46    50 1   
   103    46    51 1   
   104    46   111 1   
   105    47    98 1   
   106    47    99 1   
   107    47   100 1   
   108    48    50 1   
   109    48   101 1   
   110    48   102 1   
   111    49    51 1   
   112    49   103 1   
   113    49   104 1   
   114    50   105 1   
   115    50   106 1   
   116    51   107 1   
   117    52   108 1   
   118    52   109 1   
   119    52   110 1   
   120   111   112 1   
   121   111   113 1   
   122   111   114 1   
   123   115   117 1   
@<TRIPOS>SUBSTRUCTURE
     1 LRV         1 TEMP              0 ****  ****    0 ROOT
