@<TRIPOS>MOLECULE
LRV
  117   123     1     0     0
SMALL
No Charge or Current Charge


@<TRIPOS>ATOM
      1 C10         31.6120   -16.8700    -7.9300 c6         1 LRV       0.151300
      2 C15         22.5330   -17.3590    -6.9640 c6         1 LRV       0.110300
      3 C20         28.3550   -11.9030    -9.7780 c5         1 LRV      -0.093400
      4 C21         30.3430   -13.2290    -9.9420 c5         1 LRV      -0.048700
      5 C22         28.8660   -11.6700   -11.2410 c5         1 LRV      -0.037000
      6 C24         28.2320   -12.6090   -12.3680 c6         1 LRV      -0.039700
      7 C11         30.2450   -17.4320    -8.4710 c6         1 LRV       0.179300
      8 C14         22.6440   -15.0770    -5.7710 c6         1 LRV       0.134300
      9 C16         23.9580   -17.6470    -6.3810 c6         1 LRV       0.144300
     10 C18         24.2460   -19.1610    -6.1360 c3         1 LRV       0.157600
     11 C19         28.8140   -13.3600    -9.5520 c5         1 LRV       0.188000
     12 C23         27.9760   -14.3410   -10.4200 c6         1 LRV      -0.093400
     13 C25         25.4220    -8.9450   -13.3860 c          1 LRV       0.718000
     14 C1          27.4740   -13.7450    -7.4540 c6         1 LRV       0.393300
     15 O1          28.7490   -13.7220    -8.1360 os         1 LRV      -0.448000
     16 C2          27.5380   -14.5560    -6.1070 c6         1 LRV       0.149300
     17 O2          27.7470   -16.0010    -6.2130 os         1 LRV      -0.420000
     18 O5          27.1430   -12.3680    -7.1630 os         1 LRV      -0.480000
     19 C5          25.8600   -12.1600    -6.5300 c6         1 LRV       0.183300
     20 C4          25.8650   -12.8470    -5.1320 c6         1 LRV       0.119300
     21 O4          24.6020   -12.6570    -4.4550 oh         1 LRV      -0.713000
     22 C3          26.1960   -14.3610    -5.3330 c6         1 LRV       0.128300
     23 C6          25.5970   -10.6190    -6.4450 c3         1 LRV       0.170600
     24 O6          25.6360    -9.9590    -7.7260 oh         1 LRV      -0.698000
     25 C7          29.0310   -16.5450    -6.6060 c6         1 LRV       0.417300
     26 C8          30.2860   -15.8880    -5.9300 c6         1 LRV       0.063300
     27 O8          30.2100   -15.8690    -4.4800 oh         1 LRV      -0.714000
     28 O11         29.1670   -16.5680    -8.0320 os         1 LRV      -0.471000
     29 O10         32.7220   -17.7390    -8.2070 oh         1 LRV      -0.685000
     30 C9          31.5620   -16.6590    -6.3810 c6         1 LRV       0.105300
     31 O9          31.6110   -17.9310    -5.7110 oh         1 LRV      -0.643000
     32 C12         30.1480   -17.4980   -10.0280 c3         1 LRV       0.170600
     33 O15         30.9510   -18.5380   -10.6160 oh         1 LRV      -0.719000
     34 C13         24.0370   -15.5260    -5.2080 c6         1 LRV       0.355300
     35 O16         25.1170   -15.0370    -6.0310 os         1 LRV      -0.447000
     36 O17         22.5740   -13.6360    -5.9280 oh         1 LRV      -0.682000
     37 O18         24.1350   -16.9620    -5.1170 os         1 LRV      -0.479000
     38 O19         21.4680   -17.8820    -6.1270 oh         1 LRV      -0.738000
     39 C17         22.3540   -15.8170    -7.1230 c6         1 LRV       0.178300
     40 O20         21.0100   -15.5680    -7.5800 oh         1 LRV      -0.634000
     41 C26         25.1180   -10.9150   -15.0600 c6         1 LRV      -0.060400
     42 C28         28.6580   -10.1610   -11.6230 c6         1 LRV      -0.057400
     43 C29         28.2000   -14.1160   -11.9280 c6         1 LRV      -0.060400
     44 C30         30.3680   -12.0540   -10.9950 c5         1 LRV      -0.076400
     45 C31         26.1520    -9.8770   -14.4420 c6         1 LRV      -0.158000
     46 C32         26.9270   -12.0250   -13.0540 c6         1 LRV      -0.020000
     47 C33         31.3300   -12.9340    -8.7790 c3         1 LRV      -0.072100
     48 C34         25.7170   -12.3040   -15.3960 c6         1 LRV      -0.070400
     49 C35         28.5320    -9.9010   -13.1340 c6         1 LRV      -0.053400
     50 C36         26.3820   -13.0030   -14.1680 c6         1 LRV      -0.065400
     51 C37         27.3640   -10.7030   -13.8170 c6         1 LRV      -0.013700
     52 C38         26.7050    -8.9840   -15.6120 c3         1 LRV      -0.063100
     53 O22         26.0910    -8.1300   -12.7670 o          1 LRV      -0.736000
     54 O23         24.2230    -8.7480   -13.5390 o          1 LRV      -0.736000
     55 H11         31.7840   -15.8960    -8.4090 h1         1 LRV       0.041700
     56 H22         22.4790   -17.8100    -7.9670 h1         1 LRV       0.071700
     57 H37         27.2730   -11.7890    -9.6830 hc         1 LRV       0.065700
     58 H57         30.6960   -14.1590   -10.4010 hc         1 LRV       0.040700
     59 H31         28.9660   -12.6160   -13.1870 hc         1 LRV       0.031700
     60 H10         30.0730   -18.4440    -8.0750 h1         1 LRV       0.083700
     61 H19         21.8880   -15.3960    -5.0380 h1         1 LRV       0.050700
     62 H21         24.7160   -17.2870    -7.0930 h1         1 LRV       0.094700
     63 H26         25.2770   -19.2520    -5.7690 h1         1 LRV       0.037700
     64 H27         23.5840   -19.5220    -5.3370 h1         1 LRV       0.037700
     65 H36         26.9080   -14.2270   -10.1980 hc         1 LRV       0.045200
     66 H34         28.2250   -15.3780   -10.1690 hc         1 LRV       0.045200
     67 H1          26.7010   -14.1940    -8.0940 h2         1 LRV       0.068700
     68 H2          28.3370   -14.1270    -5.4870 h1         1 LRV       0.057700
     69 H5          25.0740   -12.6040    -7.1580 h1         1 LRV       0.091700
     70 H4          26.6730   -12.3960    -4.5360 h1         1 LRV       0.038700
     71 HD          24.8060   -12.2950    -3.5590 ho         1 LRV       0.494000
     72 H3          26.3220   -14.8280    -4.3450 h1         1 LRV       0.052700
     73 H6C2        26.3490   -10.1810    -5.7750 h1         1 LRV       0.027700
     74 H6C1        24.6150   -10.4620    -5.9800 h1         1 LRV       0.027700
     75 H6          25.5390    -8.9950    -7.5560 ho         1 LRV       0.501000
     76 H7          29.0230   -17.5950    -6.2790 h2         1 LRV       0.088700
     77 H8          30.3640   -14.8600    -6.3100 h1         1 LRV       0.057700
     78 H9          30.8120   -15.1560    -4.1580 ho         1 LRV       0.503000
     79 H12         32.7740   -18.3070    -7.4010 ho         1 LRV       0.496000
     80 H13         32.4380   -16.0620    -6.0890 h1         1 LRV       0.025700
     81 H14         31.2560   -17.7520    -4.8080 ho         1 LRV       0.449000
     82 H16         30.4410   -16.5190   -10.4310 h1         1 LRV       0.041700
     83 H15         29.0940   -17.6570   -10.2930 h1         1 LRV       0.041700
     84 H17         30.8620   -18.4460   -11.5910 ho         1 LRV       0.503000
     85 H18         24.1330   -15.1150    -4.1930 h2         1 LRV       0.057700
     86 H20         23.3300   -13.2600    -5.3920 ho         1 LRV       0.501000
     87 H23         21.5630   -18.8640    -6.1250 ho         1 LRV       0.507000
     88 H24         23.0830   -15.4590    -7.8670 h1         1 LRV       0.108700
     89 H25         20.4790   -16.2520    -7.1110 ho         1 LRV       0.443000
     90 H51         24.6630   -10.4960   -15.9680 hc         1 LRV       0.045700
     91 H52         24.2640   -11.0820   -14.3940 hc         1 LRV       0.045700
     92 H40         29.4820    -9.5550   -11.2240 hc         1 LRV       0.049700
     93 H41         27.7670    -9.7590   -11.1270 hc         1 LRV       0.049700
     94 H33         27.4570   -14.6970   -12.4870 hc         1 LRV       0.028700
     95 H30         29.1620   -14.5720   -12.1990 hc         1 LRV       0.028700
     96 H29         30.8830   -12.3440   -11.9170 hc         1 LRV       0.037200
     97 H48         30.9300   -11.1980   -10.6030 hc         1 LRV       0.037200
     98 H32         31.3560   -13.7490    -8.0510 hc         1 LRV       0.027700
     99 H35         32.3510   -12.8050    -9.1570 hc         1 LRV       0.027700
    100 H58         31.0550   -12.0180    -8.2420 hc         1 LRV       0.027700
    101 H50         24.9360   -12.9560   -15.8110 hc         1 LRV       0.014700
    102 H49         26.4600   -12.1860   -16.1970 hc         1 LRV       0.014700
    103 H38         29.4850   -10.1920   -13.6000 hc         1 LRV       0.040200
    104 H39         28.4560    -8.8240   -13.3200 hc         1 LRV       0.040200
    105 H44         25.6660   -13.7090   -13.7250 hc         1 LRV       0.018700
    106 H45         27.1990   -13.6240   -14.5590 hc         1 LRV       0.018700
    107 H43         27.8940   -11.0650   -14.7100 hc         1 LRV       0.003700
    108 H47         27.4420    -8.2510   -15.2640 hc         1 LRV       0.015033
    109 H55         27.1830    -9.5880   -16.3920 hc         1 LRV       0.015033
    110 H56         25.8960    -8.4170   -16.0890 hc         1 LRV       0.015033
    111 C27         25.7970   -11.8070   -11.9830 c3         1 LRV      -0.078100
    112 H53         25.9640   -10.9330   -11.3500 hc         1 LRV       0.040367
    113 H54         24.8070   -11.6760   -12.4230 hc         1 LRV       0.040367
    114 H46         25.7080   -12.6780   -11.3270 hc         1 LRV       0.040367
    115 O21         24.0750   -19.9590    -7.3220 oh         1 LRV      -0.732000
    116 H42         28.8100   -11.2080    -9.0610 hc         1 LRV       0.065700
    117 H28         24.3550   -20.8780    -7.0970 ho         1 LRV       0.505000
@<TRIPOS>BOND
     1     1     7 1   
     2     1    29 1   
     3     1    30 1   
     4     1    55 1   
     5     2     9 1   
     6     2    38 1   
     7     2    39 1   
     8     2    56 1   
     9     3     5 1   
    10     3    11 1   
    11     3    57 1   
    12     3   116 1   
    13     4    11 1   
    14     4    44 1   
    15     4    47 1   
    16     4    58 1   
    17     5     6 1   
    18     5    42 1   
    19     5    44 1   
    20     6    43 1   
    21     6    46 1   
    22     6    59 1   
    23     7    28 1   
    24     7    32 1   
    25     7    60 1   
    26     8    34 1   
    27     8    36 1   
    28     8    39 1   
    29     8    61 1   
    30     9    10 1   
    31     9    37 1   
    32     9    62 1   
    33    10    63 1   
    34    10    64 1   
    35    10   115 1   
    36    11    12 1   
    37    11    15 1   
    38    12    43 1   
    39    12    65 1   
    40    12    66 1   
    41    13    45 1   
    42    13    53 1   
    43    13    54 1   
    44    14    15 1   
    45    14    16 1   
    46    14    18 1   
    47    14    67 1   
    48    16    17 1   
    49    16    22 1   
    50    16    68 1   
    51    17    25 1   
    52    18    19 1   
    53    19    20 1   
    54    19    23 1   
    55    19    69 1   
    56    20    21 1   
    57    20    22 1   
    58    20    70 1   
    59    21    71 1   
    60    22    35 1   
    61    22    72 1   
    62    23    24 1   
    63    23    73 1   
    64    23    74 1   
    65    24    75 1   
    66    25    26 1   
    67    25    28 1   
    68    25    76 1   
    69    26    27 1   
    70    26    30 1   
    71    26    77 1   
    72    27    78 1   
    73    29    79 1   
    74    30    31 1   
    75    30    80 1   
    76    31    81 1   
    77    32    33 1   
    78    32    82 1   
    79    32    83 1   
    80    33    84 1   
    81    34    35 1   
    82    34    37 1   
    83    34    85 1   
    84    36    86 1   
    85    38    87 1   
    86    39    40 1   
    87    39    88 1   
    88    40    89 1   
    89    41    45 1   
    90    41    48 1   
    91    41    90 1   
    92    41    91 1   
    93    42    49 1   
    94    42    92 1   
    95    42    93 1   
    96    43    94 1   
    97    43    95 1   
    98    44    96 1   
    99    44    97 1   
   100    45    51 1   
   101    45    52 1   
   102    46    50 1   
   103    46    51 1   
   104    46   111 1   
   105    47    98 1   
   106    47    99 1   
   107    47   100 1   
   108    48    50 1   
   109    48   101 1   
   110    48   102 1   
   111    49    51 1   
   112    49   103 1   
   113    49   104 1   
   114    50   105 1   
   115    50   106 1   
   116    51   107 1   
   117    52   108 1   
   118    52   109 1   
   119    52   110 1   
   120   111   112 1   
   121   111   113 1   
   122   111   114 1   
   123   115   117 1   
@<TRIPOS>SUBSTRUCTURE
     1 LRV         1 TEMP              0 ****  ****    0 ROOT
