@<TRIPOS>MOLECULE
LRW
   21    21     1     0     0
SMALL
No Charge or Current Charge


@<TRIPOS>ATOM
      1 C10        -12.3640   204.6260     7.5100 ca         1 LRW      -0.198300
      2 C02         -8.0280   203.0150    11.8720 c          1 LRW       0.697200
      3 C04         -8.5130   203.5490    10.5590 ce         1 LRW      -0.206200
      4 C05         -9.8200   203.6430    10.1590 cf         1 LRW      -0.248200
      5 C06        -10.3850   204.1530     8.8920 ca         1 LRW       0.000200
      6 C07         -9.5610   204.6430     7.8580 ca         1 LRW      -0.095000
      7 C08        -10.1280   205.1260     6.6680 ca         1 LRW      -0.121000
      8 C09        -11.5200   205.1220     6.4930 ca         1 LRW      -0.101000
      9 C11        -11.7830   204.1520     8.7080 ca         1 LRW      -0.079000
     10 C12        -13.8880   204.6250     7.3380 c3         1 LRW       0.353300
     11 F13        -14.2650   204.5980     6.0390 f          1 LRW      -0.123000
     12 F14        -14.4460   205.7270     7.8880 f          1 LRW      -0.123000
     13 F15        -14.4680   203.5540     7.9280 f          1 LRW      -0.123000
     14 O01         -6.8230   203.0020    12.0660 o          1 LRW      -0.718000
     15 O03         -8.8460   202.6180    12.6880 o          1 LRW      -0.718000
     16 H1          -7.7210   203.8800     9.8920 ha         1 LRW       0.142000
     17 H2         -10.5750   203.2960    10.8690 ha         1 LRW       0.195000
     18 H3          -8.4810   204.6580     7.9680 ha         1 LRW       0.122000
     19 H4          -9.4850   205.5080     5.8780 ha         1 LRW       0.103000
     20 H5         -11.9390   205.5070     5.5650 ha         1 LRW       0.111000
     21 H6         -12.4230   203.7800     9.5050 ha         1 LRW       0.128000
@<TRIPOS>BOND
     1     1     8 ar  
     2     1     9 ar  
     3     1    10 1   
     4     2     3 1   
     5     2    14 1   
     6     2    15 1   
     7     3     4 2   
     8     3    16 1   
     9     4     5 1   
    10     4    17 1   
    11     5     6 ar  
    12     5     9 ar  
    13     6     7 ar  
    14     6    18 1   
    15     7     8 ar  
    16     7    19 1   
    17     8    20 1   
    18     9    21 1   
    19    10    11 1   
    20    10    12 1   
    21    10    13 1   
@<TRIPOS>SUBSTRUCTURE
     1 LRW         1 TEMP              0 ****  ****    0 ROOT
