@<TRIPOS>MOLECULE
LRW
   21    21     1     0     0
SMALL
abcg2


@<TRIPOS>ATOM
      1 C10        -12.3250   204.5970     7.5240 ca         1 LRW      -0.198300
      2 C02         -8.0800   202.9760    11.8180 c          1 LRW       0.697200
      3 C04         -8.5580   203.4900    10.4740 ce         1 LRW      -0.206200
      4 C05         -9.8420   203.7200    10.1920 cf         1 LRW      -0.248200
      5 C06        -10.3840   204.2130     8.9230 ca         1 LRW       0.000200
      6 C07         -9.5850   204.7350     7.9010 ca         1 LRW      -0.095000
      7 C08        -10.1470   205.1780     6.7180 ca         1 LRW      -0.121000
      8 C09        -11.5190   205.1120     6.5180 ca         1 LRW      -0.101000
      9 C11        -11.7630   204.1630     8.7180 ca         1 LRW      -0.079000
     10 C12        -13.8110   204.5610     7.3430 c3         1 LRW       0.353300
     11 F13        -14.1600   204.4390     6.0570 f          1 LRW      -0.123000
     12 F14        -14.3910   205.6840     7.7950 f          1 LRW      -0.123000
     13 F15        -14.3830   203.5450     8.0000 f          1 LRW      -0.123000
     14 O01         -6.8540   202.7620    11.8970 o          1 LRW      -0.718000
     15 O03         -8.9340   202.8160    12.7120 o          1 LRW      -0.718000
     16 H1          -7.7900   203.6600     9.7240 ha         1 LRW       0.142000
     17 H2         -10.5780   203.5120    10.9630 ha         1 LRW       0.195000
     18 H3          -8.5130   204.8040     8.0310 ha         1 LRW       0.122000
     19 H4          -9.5130   205.5820     5.9390 ha         1 LRW       0.103000
     20 H5         -11.9400   205.4640     5.5850 ha         1 LRW       0.111000
     21 H6         -12.3900   203.7680     9.5090 ha         1 LRW       0.128000
@<TRIPOS>BOND
     1     1     8 ar  
     2     1     9 ar  
     3     1    10 1   
     4     2     3 1   
     5     2    14 1   
     6     2    15 1   
     7     3     4 2   
     8     3    16 1   
     9     4     5 1   
    10     4    17 1   
    11     5     6 ar  
    12     5     9 ar  
    13     6     7 ar  
    14     6    18 1   
    15     7     8 ar  
    16     7    19 1   
    17     8    20 1   
    18     9    21 1   
    19    10    11 1   
    20    10    12 1   
    21    10    13 1   
@<TRIPOS>SUBSTRUCTURE
     1 LRW         1 TEMP              0 ****  ****    0 ROOT
