@<TRIPOS>MOLECULE
LRZ
   76    80     1     0     0
SMALL
bcc


@<TRIPOS>ATOM
      1 C1           4.1870    29.8340   -18.8910 ca         1 LRZ      -0.101600
      2 C2           3.3610    28.9230   -19.5870 ca         1 LRZ      -0.201000
      3 C3           3.7060    27.6010   -19.6820 ca         1 LRZ       0.132100
      4 C4           4.9140    27.1260   -19.0960 ca         1 LRZ      -0.013000
      5 C5           5.7200    28.0490   -18.3880 ca         1 LRZ      -0.036000
      6 C6           5.3380    29.4010   -18.2880 ca         1 LRZ      -0.078000
      7 O1           2.9600    26.6900   -20.3330 oh         1 LRZ      -0.497100
      8 O2           4.5770    32.0150   -18.1370 os         1 LRZ      -0.412900
      9 O3           2.8590    31.7000   -19.5250 o          1 LRZ      -0.541000
     10 O5          12.7290    29.1980   -17.1870 oh         1 LRZ      -0.591800
     11 C10          6.9230    27.5870   -17.8090 ca         1 LRZ      -0.096000
     12 C11          3.7930    31.2630   -18.8960 c          1 LRZ       0.663700
     13 C12          4.3390    33.4200   -18.1310 c3         1 LRZ       0.130700
     14 C13          8.2010    23.6850   -19.2260 c          1 LRZ       0.794100
     15 C14          9.7160    21.8460   -19.7170 c3         1 LRZ       0.112000
     16 C15         10.7690    21.9460   -18.5940 c3         1 LRZ      -0.119400
     17 C16         12.1160    22.4980   -19.0440 c3         1 LRZ       0.234800
     18 C17         12.9710    24.7620   -19.5710 c2         1 LRZ       0.833100
     19 C18         13.4000    27.1340   -20.1230 c3         1 LRZ       0.215800
     20 C19         12.8320    28.3510   -19.4140 c5         1 LRZ       0.136100
     21 C20         12.3790    28.0870   -17.9760 c5         1 LRZ       0.094100
     22 C21         10.8560    27.9830   -18.1210 c5         1 LRZ       0.057100
     23 C22         10.6080    29.0060   -19.2270 c5         1 LRZ       0.265800
     24 C23          8.9460    27.7580   -20.6470 cc         1 LRZ       0.422700
     25 C24          7.5210    29.2650   -21.0350 ca         1 LRZ      -0.223200
     26 C25          6.4500    30.0840   -21.4290 ca         1 LRZ       0.765200
     27 C26          7.3920    31.7620   -20.1730 ca         1 LRZ       0.702900
     28 C27          8.4590    29.8420   -20.1950 ca         1 LRZ       0.461800
     29 C7           5.3470    25.7910   -19.2360 ca         1 LRZ      -0.137000
     30 C8           6.5360    25.3780   -18.6830 ca         1 LRZ       0.070600
     31 C9           7.3220    26.2900   -17.9390 ca         1 LRZ      -0.119000
     32 N1           6.9400    24.0440   -18.8170 ns         1 LRZ      -0.488100
     33 N10          8.4410    31.0890   -19.7320 nb         1 LRZ      -0.741000
     34 N2           8.4120    22.3600   -19.3520 ns         1 LRZ      -0.583900
     35 N3          11.9640    23.8410   -19.5550 nu         1 LRZ      -0.930200
     36 N4          12.5390    25.9860   -20.0350 nu         1 LRZ      -0.879200
     37 N5          14.1910    24.5910   -19.2090 n2         1 LRZ      -0.923100
     38 N6           9.3750    28.8570   -19.9480 na         1 LRZ      -0.253000
     39 N7           7.8470    27.9610   -21.3070 nd         1 LRZ      -0.554100
     40 N8           5.4860    29.6660   -22.2600 nv         1 LRZ      -0.936500
     41 N9           6.4210    31.3420   -20.9790 nb         1 LRZ      -0.825000
     42 O4           9.0710    24.5190   -19.4690 o          1 LRZ      -0.668100
     43 O6          10.1460    28.3250   -16.9650 oh         1 LRZ      -0.582800
     44 O7          11.6770    28.8300   -20.1160 os         1 LRZ      -0.418600
     45 H1           2.4510    29.2770   -20.0570 ha         1 LRZ       0.152000
     46 H2           5.9890    30.0820   -17.7550 ha         1 LRZ       0.160000
     47 H6           2.1700    27.1020   -20.7030 ho         1 LRZ       0.430000
     48 H5           7.5370    28.2860   -17.2570 ha         1 LRZ       0.151000
     49 H8           5.0820    33.8440   -17.4620 h1         1 LRZ       0.049367
     50 H10          4.4640    33.8470   -19.1260 h1         1 LRZ       0.049367
     51 H9           3.3420    33.6570   -17.7600 h1         1 LRZ       0.049367
     52 H12          9.5710    20.8060   -20.0020 h1         1 LRZ       0.062200
     53 H13         10.0570    22.3590   -20.6170 h1         1 LRZ       0.062200
     54 H14         10.3910    22.5780   -17.7870 hc         1 LRZ       0.053700
     55 H15         10.9350    20.9620   -18.1540 hc         1 LRZ       0.053700
     56 H16         12.7880    22.4770   -18.1800 h1         1 LRZ       0.038200
     57 H17         12.5590    21.8410   -19.8020 h1         1 LRZ       0.038200
     58 H21         14.3540    26.8850   -19.6600 h1         1 LRZ       0.073200
     59 H22         13.6150    27.3930   -21.1650 h1         1 LRZ       0.073200
     60 H23         13.5990    29.1340   -19.4170 h1         1 LRZ       0.088700
     61 H24         12.8140    27.1610   -17.5790 h1         1 LRZ       0.070700
     62 H26         10.5990    26.9810   -18.4810 h1         1 LRZ       0.072700
     63 H28         10.5900    30.0160   -18.8000 h2         1 LRZ       0.112700
     64 H29          9.4810    26.8220   -20.6200 h5         1 LRZ       0.077800
     65 H32          7.3080    32.7910   -19.8390 h5         1 LRZ       0.043100
     66 H3           4.7530    25.0840   -19.8000 ha         1 LRZ       0.146000
     67 H4           8.2340    25.9560   -17.4660 ha         1 LRZ       0.137000
     68 H7           6.2020    23.3630   -18.9200 hn         1 LRZ       0.316500
     69 H11          7.7220    21.7080   -19.0170 hn         1 LRZ       0.316500
     70 H18         11.0160    24.2010   -19.5580 hn         1 LRZ       0.457800
     71 H19         11.7660    25.9610   -20.6790 hn         1 LRZ       0.427800
     72 H20         14.3350    23.6730   -18.8090 hn         1 LRZ       0.380400
     73 H31          4.6560    30.2270   -22.3520 hn         1 LRZ       0.440800
     74 H30          5.3880    28.6820   -22.4480 hn         1 LRZ       0.440800
     75 H27         10.0240    27.5340   -16.4300 ho         1 LRZ       0.412000
     76 H25         12.1930    29.1730   -16.3860 ho         1 LRZ       0.419000
@<TRIPOS>BOND
     1     1     2 ar  
     2     1     6 ar  
     3     1    12 1   
     4     2     3 ar  
     5     2    45 1   
     6     3     4 ar  
     7     3     7 1   
     8     4     5 ar  
     9     4    29 ar  
    10     5     6 ar  
    11     5    11 ar  
    12     6    46 1   
    13     7    47 1   
    14     8    12 1   
    15     8    13 1   
    16     9    12 2   
    17    10    21 1   
    18    10    76 1   
    19    11    31 ar  
    20    11    48 1   
    21    13    49 1   
    22    13    50 1   
    23    13    51 1   
    24    14    32 1   
    25    14    34 1   
    26    14    42 2   
    27    15    16 1   
    28    15    34 1   
    29    15    52 1   
    30    15    53 1   
    31    16    17 1   
    32    16    54 1   
    33    16    55 1   
    34    17    35 1   
    35    17    56 1   
    36    17    57 1   
    37    18    35 1   
    38    18    36 1   
    39    18    37 2   
    40    19    20 1   
    41    19    36 1   
    42    19    58 1   
    43    19    59 1   
    44    20    21 1   
    45    20    44 1   
    46    20    60 1   
    47    21    22 1   
    48    21    61 1   
    49    22    23 1   
    50    22    43 1   
    51    22    62 1   
    52    23    38 1   
    53    23    44 1   
    54    23    63 1   
    55    24    38 1   
    56    24    39 2   
    57    24    64 1   
    58    25    26 ar  
    59    25    28 ar  
    60    25    39 1   
    61    26    40 1   
    62    26    41 ar  
    63    27    33 ar  
    64    27    41 ar  
    65    27    65 1   
    66    28    33 ar  
    67    28    38 1   
    68    29    30 ar  
    69    29    66 1   
    70    30    31 ar  
    71    30    32 1   
    72    31    67 1   
    73    32    68 1   
    74    34    69 1   
    75    35    70 1   
    76    36    71 1   
    77    37    72 1   
    78    40    73 1   
    79    40    74 1   
    80    43    75 1   
@<TRIPOS>SUBSTRUCTURE
     1 LRZ         1 TEMP              0 ****  ****    0 ROOT
