@<TRIPOS>MOLECULE
LRZ
   76    80     1     0     0
SMALL
No Charge or Current Charge


@<TRIPOS>ATOM
      1 C1           3.9110    30.0720   -18.5730 ca         1 LRZ      -0.101600
      2 C2           3.1520    29.1520   -19.3320 ca         1 LRZ      -0.183000
      3 C3           3.6480    27.8680   -19.6190 ca         1 LRZ       0.132100
      4 C4           4.9240    27.4800   -19.1490 ca         1 LRZ      -0.013000
      5 C5           5.6820    28.3890   -18.3790 ca         1 LRZ      -0.036000
      6 C6           5.1780    29.6710   -18.0930 ca         1 LRZ      -0.060000
      7 O1           2.8780    27.0150   -20.3610 oh         1 LRZ      -0.536100
      8 O2           4.2370    32.2620   -17.5930 os         1 LRZ      -0.436100
      9 O3           2.2600    31.8280   -18.6590 o          1 LRZ      -0.492000
     10 O5          12.7180    29.8030   -17.6670 oh         1 LRZ      -0.714000
     11 C10          6.9490    28.0160   -17.8980 ca         1 LRZ      -0.078000
     12 C11          3.3700    31.4600   -18.2920 c          1 LRZ       0.614700
     13 C12          3.8210    33.6040   -17.2790 c3         1 LRZ       0.153900
     14 C13          8.5540    24.1010   -19.4570 c          1 LRZ       0.660100
     15 C14          9.8370    22.0330   -20.0990 c3         1 LRZ       0.112000
     16 C15         10.5910    21.6680   -18.7970 c3         1 LRZ      -0.119400
     17 C16         12.0530    22.1480   -18.7860 c3         1 LRZ       0.234800
     18 C17         13.1170    24.3570   -19.0480 c2         1 LRZ       0.833100
     19 C18         13.6470    26.7040   -19.6540 c3         1 LRZ       0.215800
     20 C19         13.0300    28.1260   -19.5000 c5         1 LRZ       0.159300
     21 C20         12.4870    28.4420   -18.0600 c5         1 LRZ       0.117300
     22 C21         10.9590    28.2130   -18.2480 c5         1 LRZ       0.080300
     23 C22         10.7990    28.8420   -19.6670 c5         1 LRZ       0.318300
     24 C23          9.2290    27.4050   -21.0520 cc         1 LRZ       0.422700
     25 C24          7.6210    28.7970   -21.3700 ca         1 LRZ      -0.092600
     26 C25          6.4310    29.4650   -21.7280 ca         1 LRZ       0.436900
     27 C26          7.1350    31.2800   -20.5250 ca         1 LRZ       0.176900
     28 C27          8.5260    29.4660   -20.5850 ca         1 LRZ       0.133500
     29 C7           5.4650    26.2080   -19.4440 ca         1 LRZ      -0.119000
     30 C8           6.7500    25.8480   -18.9960 ca         1 LRZ      -0.022000
     31 C9           7.4810    26.7520   -18.2030 ca         1 LRZ      -0.101000
     32 N1           7.2570    24.5760   -19.3680 ns         1 LRZ      -0.162000
     33 N10          8.3070    30.7200   -20.1410 nb         1 LRZ      -0.215000
     34 N2           8.6030    22.7860   -19.8530 ns         1 LRZ      -0.516900
     35 N3          12.0880    23.6080   -18.7040 nu         1 LRZ      -0.985400
     36 N4          12.7190    25.5970   -19.3160 nu         1 LRZ      -0.934400
     37 N5          14.2650    24.0670   -18.6570 n2         1 LRZ      -0.923100
     38 N6           9.5660    28.5990   -20.4090 na         1 LRZ      -0.282300
     39 N7           8.0470    27.5050   -21.6910 nd         1 LRZ      -0.554100
     40 N8           5.4790    28.8960   -22.5150 nv         1 LRZ      -1.046900
     41 N9           6.1810    30.7140   -21.3050 nb         1 LRZ      -0.299000
     42 O4           9.5660    24.7590   -19.2450 o          1 LRZ      -0.668100
     43 O6          10.2100    28.8730   -17.2050 oh         1 LRZ      -0.705000
     44 O7          11.9070    28.2970   -20.4120 os         1 LRZ      -0.465000
     45 H1           2.1730    29.4450   -19.7050 ha         1 LRZ       0.134000
     46 H2           5.7840    30.3550   -17.5040 ha         1 LRZ       0.142000
     47 H6           2.0210    27.4520   -20.5540 ho         1 LRZ       0.469000
     48 H5           7.5280    28.7110   -17.2970 ha         1 LRZ       0.133000
     49 H8           4.6080    34.1270   -16.7220 h1         1 LRZ       0.049367
     50 H10          3.6160    34.1740   -18.1940 h1         1 LRZ       0.049367
     51 H9           2.9130    33.5980   -16.6610 h1         1 LRZ       0.049367
     52 H12          9.5810    21.1120   -20.6390 h1         1 LRZ       0.062200
     53 H13         10.4810    22.6280   -20.7610 h1         1 LRZ       0.062200
     54 H14         10.0680    22.0640   -17.9180 hc         1 LRZ       0.053700
     55 H15         10.5850    20.5760   -18.6900 hc         1 LRZ       0.053700
     56 H16         12.5770    21.7120   -17.9240 h1         1 LRZ       0.038200
     57 H17         12.5550    21.8020   -19.7010 h1         1 LRZ       0.038200
     58 H21         14.5290    26.6680   -19.0000 h1         1 LRZ       0.073200
     59 H22         14.0100    26.5880   -20.6850 h1         1 LRZ       0.073200
     60 H23         13.8100    28.8510   -19.7730 h1         1 LRZ       0.088700
     61 H24         12.9040    27.7500   -17.3130 h1         1 LRZ       0.070700
     62 H26         10.7200    27.1410   -18.2820 h1         1 LRZ       0.072700
     63 H28         10.9070    29.9320   -19.6010 h2         1 LRZ       0.112700
     64 H29          9.8910    26.5480   -21.0640 h5         1 LRZ       0.077800
     65 H32          6.9400    32.2920   -20.1730 h5         1 LRZ       0.043100
     66 H3           4.9000    25.5030   -20.0470 ha         1 LRZ       0.128000
     67 H4           8.4600    26.4870   -17.8170 ha         1 LRZ       0.119000
     68 H7           6.5450    23.9090   -19.6290 hn         1 LRZ       0.150000
     69 H11          7.7180    22.3190   -20.0090 hn         1 LRZ       0.316500
     70 H18         11.1880    24.0820   -18.7940 hn         1 LRZ       0.513000
     71 H19         11.7950    25.6440   -19.7230 hn         1 LRZ       0.483000
     72 H20         14.1680    23.1250   -18.2690 hn         1 LRZ       0.380400
     73 H31          4.5450    29.2870   -22.4710 hn         1 LRZ       0.496000
     74 H30          5.5390    27.8890   -22.6360 hn         1 LRZ       0.496000
     75 H27         10.1480    28.2490   -16.4430 ho         1 LRZ       0.511000
     76 H25         11.8820    30.0590   -17.2010 ho         1 LRZ       0.518000
@<TRIPOS>BOND
     1     1     2 ar  
     2     1     6 ar  
     3     1    12 1   
     4     2     3 ar  
     5     2    45 1   
     6     3     4 ar  
     7     3     7 1   
     8     4     5 ar  
     9     4    29 ar  
    10     5     6 ar  
    11     5    11 ar  
    12     6    46 1   
    13     7    47 1   
    14     8    12 1   
    15     8    13 1   
    16     9    12 2   
    17    10    21 1   
    18    10    76 1   
    19    11    31 ar  
    20    11    48 1   
    21    13    49 1   
    22    13    50 1   
    23    13    51 1   
    24    14    32 1   
    25    14    34 1   
    26    14    42 2   
    27    15    16 1   
    28    15    34 1   
    29    15    52 1   
    30    15    53 1   
    31    16    17 1   
    32    16    54 1   
    33    16    55 1   
    34    17    35 1   
    35    17    56 1   
    36    17    57 1   
    37    18    35 1   
    38    18    36 1   
    39    18    37 2   
    40    19    20 1   
    41    19    36 1   
    42    19    58 1   
    43    19    59 1   
    44    20    21 1   
    45    20    44 1   
    46    20    60 1   
    47    21    22 1   
    48    21    61 1   
    49    22    23 1   
    50    22    43 1   
    51    22    62 1   
    52    23    38 1   
    53    23    44 1   
    54    23    63 1   
    55    24    38 1   
    56    24    39 2   
    57    24    64 1   
    58    25    26 ar  
    59    25    28 ar  
    60    25    39 1   
    61    26    40 1   
    62    26    41 ar  
    63    27    33 ar  
    64    27    41 ar  
    65    27    65 1   
    66    28    33 ar  
    67    28    38 1   
    68    29    30 ar  
    69    29    66 1   
    70    30    31 ar  
    71    30    32 1   
    72    31    67 1   
    73    32    68 1   
    74    34    69 1   
    75    35    70 1   
    76    36    71 1   
    77    37    72 1   
    78    40    73 1   
    79    40    74 1   
    80    43    75 1   
@<TRIPOS>SUBSTRUCTURE
     1 LRZ         1 TEMP              0 ****  ****    0 ROOT
