@<TRIPOS>MOLECULE
LS0
   35    37     1     0     0
SMALL
abcg2


@<TRIPOS>ATOM
      1 N1           7.4280     0.1970    21.1980 ns         1 LS0      -0.146000
      2 C4           7.3870     1.7390    19.2790 ca         1 LS0       0.320900
      3 C5           6.8520     0.6740    20.0090 ca         1 LS0      -0.077000
      4 C6           8.4520     0.7150    21.9260 c          1 LS0       0.576100
      5 C7           8.7400    -0.0790    23.2080 c3         1 LS0       0.002600
      6 C8          10.5430     0.8710    24.6810 cc         1 LS0      -0.145100
      7 C10         12.3590    -0.0210    23.6890 ca         1 LS0      -0.106800
      8 C13         12.5190    -1.6980    21.5060 ca         1 LS0       0.184000
      9 C15         11.1950    -0.4740    23.0110 ca         1 LS0      -0.016200
     10 N            6.8490     2.1880    18.1420 nb         1 LS0      -0.640000
     11 N2          10.1020     0.0730    23.6400 na         1 LS0      -0.093700
     12 C1           5.6930     0.0360    19.5300 ca         1 LS0      -0.092300
     13 C11         13.6140    -0.4460    23.2380 ca         1 LS0      -0.033000
     14 C2           5.1520     0.5180    18.3450 ca         1 LS0      -0.139000
     15 C9          11.9070     0.8350    24.7500 cd         1 LS0      -0.219200
     16 C12         13.6940    -1.2880    22.1400 ca         1 LS0      -0.173000
     17 C14         11.2550    -1.3200    21.9020 ca         1 LS0      -0.170000
     18 C            5.0600    -1.1120    20.2590 c3         1 LS0      -0.053800
     19 O            9.0840     1.7180    21.6360 o          1 LS0      -0.546100
     20 C3           5.7500     1.5840    17.6870 ca         1 LS0       0.313900
     21 H1           7.0210    -0.6480    21.5700 hn         1 LS0       0.150000
     22 H2           8.2770     2.2360    19.6320 h4         1 LS0       0.056100
     23 H3           8.0800     0.3000    23.9910 h1         1 LS0       0.074200
     24 H4           8.5070    -1.1350    23.0650 h1         1 LS0       0.074200
     25 H5           9.8270     1.3960    25.2910 h4         1 LS0       0.214000
     26 H6          14.5180    -0.1190    23.7370 ha         1 LS0       0.121000
     27 H7           4.2610     0.0600    17.9360 ha         1 LS0       0.122000
     28 H8          12.5200     1.3510    25.4710 ha         1 LS0       0.209000
     29 H9          14.6460    -1.6340    21.7620 ha         1 LS0       0.131000
     30 H10         10.3790    -1.6670    21.3710 ha         1 LS0       0.128000
     31 H11          5.7450    -1.9620    20.3380 hc         1 LS0       0.046367
     32 H12          4.7740    -0.8280    21.2760 hc         1 LS0       0.046367
     33 H13          4.1670    -1.4490    19.7360 hc         1 LS0       0.046367
     34 H14          5.3310     1.9630    16.7620 h4         1 LS0       0.024100
     35 F           12.6340    -2.5190    20.4240 f          1 LS0      -0.188000
@<TRIPOS>BOND
     1     1     3 1   
     2     1     4 1   
     3     1    21 1   
     4     2     3 ar  
     5     2    10 ar  
     6     2    22 1   
     7     3    12 ar  
     8     4     5 1   
     9     4    19 2   
    10     5    11 1   
    11     5    23 1   
    12     5    24 1   
    13     6    11 1   
    14     6    15 2   
    15     6    25 1   
    16     7     9 ar  
    17     7    13 ar  
    18     7    15 1   
    19     8    16 ar  
    20     8    17 ar  
    21     8    35 1   
    22     9    11 1   
    23     9    17 ar  
    24    10    20 ar  
    25    12    14 ar  
    26    12    18 1   
    27    13    16 ar  
    28    13    26 1   
    29    14    20 ar  
    30    14    27 1   
    31    15    28 1   
    32    16    29 1   
    33    17    30 1   
    34    18    31 1   
    35    18    32 1   
    36    18    33 1   
    37    20    34 1   
@<TRIPOS>SUBSTRUCTURE
     1 LS0         1 TEMP              0 ****  ****    0 ROOT
