@<TRIPOS>MOLECULE
LS0
   35    37     1     0     0
SMALL
No Charge or Current Charge


@<TRIPOS>ATOM
      1 N1           7.6850     0.7330    21.7460 ns         1 LS0      -0.146000
      2 C4           6.0690     1.9870    20.3090 ca         1 LS0       0.320900
      3 C5           7.0680     0.9950    20.4880 ca         1 LS0      -0.077000
      4 C6           7.6450     1.4030    22.9630 c          1 LS0       0.576100
      5 C7           8.4770     0.7460    24.0720 c3         1 LS0       0.002600
      6 C8          10.9330     1.4850    23.7940 cc         1 LS0      -0.145100
      7 C10         11.6550    -0.4540    22.7310 ca         1 LS0      -0.106800
      8 C13         10.3740    -2.8190    22.0840 ca         1 LS0       0.184000
      9 C15         10.3360    -0.6160    23.0590 ca         1 LS0      -0.016200
     10 N            5.4740     2.2390    19.1180 nb         1 LS0      -0.640000
     11 N2           9.8890     0.5440    23.6890 na         1 LS0      -0.093700
     12 C1           7.4580     0.2280    19.3670 ca         1 LS0      -0.092300
     13 C11         12.3980    -1.4410    22.0710 ca         1 LS0      -0.033000
     14 C2           6.8350     0.4970    18.1340 ca         1 LS0      -0.139000
     15 C9          12.0180     0.8590    23.1970 cd         1 LS0      -0.219200
     16 C12         11.7350    -2.6420    21.7430 ca         1 LS0      -0.173000
     17 C14          9.6550    -1.8050    22.7500 ca         1 LS0      -0.170000
     18 C            8.5220    -0.8610    19.4670 c3         1 LS0      -0.053800
     19 O            7.0180     2.4390    23.1510 o          1 LS0      -0.546100
     20 C3           5.8580     1.5020    18.0530 ca         1 LS0       0.313900
     21 H1           8.2820    -0.0850    21.7450 hn         1 LS0       0.150000
     22 H2           5.7140     2.5990    21.1360 h4         1 LS0       0.056100
     23 H3           8.4370     1.3900    24.9580 h1         1 LS0       0.074200
     24 H4           8.0170    -0.2150    24.3280 h1         1 LS0       0.074200
     25 H5          10.8180     2.4670    24.2460 h4         1 LS0       0.214000
     26 H6          13.4450    -1.2850    21.8200 ha         1 LS0       0.121000
     27 H7           7.0990    -0.0630    17.2410 ha         1 LS0       0.122000
     28 H8          13.0050     1.3070    23.0950 ha         1 LS0       0.209000
     29 H9          12.2700    -3.4360    21.2290 ha         1 LS0       0.131000
     30 H10          8.6110    -1.9560    23.0080 ha         1 LS0       0.128000
     31 H11          9.4550    -0.4680    19.8900 hc         1 LS0       0.046367
     32 H12          8.1810    -1.6860    20.1040 hc         1 LS0       0.046367
     33 H13          8.7630    -1.2840    18.4840 hc         1 LS0       0.046367
     34 H14          5.3670     1.7230    17.1060 h4         1 LS0       0.024100
     35 F            9.7530    -3.9740    21.7640 f          1 LS0      -0.188000
@<TRIPOS>BOND
     1     1     3 1   
     2     1     4 1   
     3     1    21 1   
     4     2     3 ar  
     5     2    10 ar  
     6     2    22 1   
     7     3    12 ar  
     8     4     5 1   
     9     4    19 2   
    10     5    11 1   
    11     5    23 1   
    12     5    24 1   
    13     6    11 1   
    14     6    15 2   
    15     6    25 1   
    16     7     9 ar  
    17     7    13 ar  
    18     7    15 1   
    19     8    16 ar  
    20     8    17 ar  
    21     8    35 1   
    22     9    11 1   
    23     9    17 ar  
    24    10    20 ar  
    25    12    14 ar  
    26    12    18 1   
    27    13    16 ar  
    28    13    26 1   
    29    14    20 ar  
    30    14    27 1   
    31    15    28 1   
    32    16    29 1   
    33    17    30 1   
    34    18    31 1   
    35    18    32 1   
    36    18    33 1   
    37    20    34 1   
@<TRIPOS>SUBSTRUCTURE
     1 LS0         1 TEMP              0 ****  ****    0 ROOT
