@<TRIPOS>MOLECULE
LS1
   38    40     1     0     0
SMALL
abcg2


@<TRIPOS>ATOM
      1 N1          -1.5350    -0.3250    -4.8520 ns         1 LS1      -0.392100
      2 C2          -1.6050    -0.2900    -3.4880 c          1 LS1       0.580200
      3 C3          -0.2410    -0.0220    -3.0180 cc         1 LS1      -0.269400
      4 C4           1.9460     0.3360    -4.3970 ca         1 LS1      -0.072000
      5 C5           2.4370     0.3840    -5.6990 ca         1 LS1      -0.134000
      6 C6           1.5890     0.1910    -6.7850 ca         1 LS1      -0.084000
      7 C7           0.2300    -0.0550    -6.6020 ca         1 LS1      -0.138000
      8 C8          -0.2430    -0.1010    -5.3050 ca         1 LS1       0.052600
      9 C9           0.5970     0.0920    -4.1970 ca         1 LS1      -0.070800
     10 O11         -2.6200    -0.4530    -2.8170 o          1 LS1      -0.583000
     11 C12          0.1100     0.0940    -1.7120 c2         1 LS1       0.139000
     12 N17         -0.7500    -0.0240    -0.6860 nu         1 LS1      -0.812000
     13 C20         -0.4630     0.0920     0.6620 ca         1 LS1       0.358000
     14 C21         -1.5280    -0.0250     1.5630 ca         1 LS1      -0.185000
     15 C22         -1.3140     0.0880     2.9200 ca         1 LS1       0.023500
     16 C23         -0.0280     0.3190     3.3980 ca         1 LS1      -0.350500
     17 C24          1.0370     0.4310     2.5140 ca         1 LS1       0.023500
     18 C25          0.8240     0.3190     1.1530 ca         1 LS1      -0.185000
     19 S30          0.2420     0.4220     5.1400 sy         1 LS1       1.153600
     20 O31         -0.9270     1.0360     5.7490 o          1 LS1      -0.533500
     21 O32          1.5600     0.9990     5.3480 o          1 LS1      -0.533500
     22 N33          0.2980    -1.1180     5.7150 n7         1 LS1      -0.859300
     23 C35          1.3390    -2.0070     5.2170 c3         1 LS1       0.179100
     24 H1N         -2.3300    -0.4970    -5.4480 hn         1 LS1       0.339500
     25 H41          2.6160     0.4850    -3.5590 ha         1 LS1       0.111000
     26 H51          3.4890     0.5700    -5.8670 ha         1 LS1       0.115000
     27 H61          1.9870     0.2330    -7.7910 ha         1 LS1       0.115000
     28 H71         -0.4290    -0.2060    -7.4470 ha         1 LS1       0.120000
     29 H121         1.1430     0.2980    -1.4600 h4         1 LS1       0.199000
     30 H17N        -1.7150    -0.2100    -0.9380 hn         1 LS1       0.536000
     31 H211        -2.5310    -0.2000     1.1940 ha         1 LS1       0.126000
     32 H221        -2.1550     0.0020     3.5950 ha         1 LS1       0.137000
     33 H241         2.0400     0.6140     2.8740 ha         1 LS1       0.137000
     34 H251         1.6750     0.4110     0.4930 ha         1 LS1       0.126000
     35 H33N        -0.6230    -1.5410     5.7510 hn         1 LS1       0.479000
     36 H351         1.2120    -2.9680     5.7080 h1         1 LS1       0.051033
     37 H352         1.2950    -2.1670     4.1360 h1         1 LS1       0.051033
     38 H353         2.3200    -1.6210     5.4800 h1         1 LS1       0.051033
@<TRIPOS>BOND
     1     1     2 1   
     2     1     8 1   
     3     1    24 1   
     4     2     3 1   
     5     2    10 2   
     6     3     9 1   
     7     3    11 2   
     8     4     5 ar  
     9     4     9 ar  
    10     4    25 1   
    11     5     6 ar  
    12     5    26 1   
    13     6     7 ar  
    14     6    27 1   
    15     7     8 ar  
    16     7    28 1   
    17     8     9 ar  
    18    11    12 1   
    19    11    29 1   
    20    12    13 1   
    21    12    30 1   
    22    13    14 ar  
    23    13    18 ar  
    24    14    15 ar  
    25    14    31 1   
    26    15    16 ar  
    27    15    32 1   
    28    16    17 ar  
    29    16    19 1   
    30    17    18 ar  
    31    17    33 1   
    32    18    34 1   
    33    19    20 2   
    34    19    21 2   
    35    19    22 1   
    36    22    23 1   
    37    22    35 1   
    38    23    36 1   
    39    23    37 1   
    40    23    38 1   
@<TRIPOS>SUBSTRUCTURE
     1 LS1         1 TEMP              0 ****  ****    0 ROOT
