@<TRIPOS>MOLECULE
LS1
   38    40     1     0     0
SMALL
No Charge or Current Charge


@<TRIPOS>ATOM
      1 N1          -1.3870    -0.6640    -4.8090 ns         1 LS1      -0.392100
      2 C2          -1.4210    -0.6750    -3.4400 c          1 LS1       0.580200
      3 C3          -0.0890    -0.1390    -3.0620 cc         1 LS1      -0.269400
      4 C4           1.9130     0.6690    -4.5220 ca         1 LS1      -0.072000
      5 C5           2.3310     0.8370    -5.8620 ca         1 LS1      -0.134000
      6 C6           1.4760     0.4910    -6.9390 ca         1 LS1      -0.084000
      7 C7           0.1870    -0.0290    -6.6910 ca         1 LS1      -0.138000
      8 C8          -0.1980    -0.1840    -5.3570 ca         1 LS1       0.052600
      9 C9           0.6290     0.1510    -4.3000 ca         1 LS1      -0.070800
     10 O11         -2.3470    -1.0410    -2.7290 o          1 LS1      -0.583000
     11 C12          0.3540     0.0420    -1.7930 c2         1 LS1       0.139000
     12 N17         -0.4260    -0.2740    -0.6800 nu         1 LS1      -0.812000
     13 C20         -0.2160    -0.0670     0.6820 ca         1 LS1       0.358000
     14 C21         -1.3200    -0.0620     1.5480 ca         1 LS1      -0.185000
     15 C22         -1.1440     0.1410     2.9270 ca         1 LS1       0.023500
     16 C23          0.1510     0.3370     3.4440 ca         1 LS1      -0.350500
     17 C24          1.2620     0.3260     2.5800 ca         1 LS1       0.023500
     18 C25          1.0740     0.1230     1.2030 ca         1 LS1      -0.185000
     19 S30          0.3970     0.5900     5.2070 sy         1 LS1       1.153600
     20 O31         -0.8890     0.7760     5.8800 o          1 LS1      -0.533500
     21 O32          1.5320     1.4940     5.4020 o          1 LS1      -0.533500
     22 N33          0.9490    -0.9110     5.6850 n7         1 LS1      -0.859300
     23 C35          0.2400    -2.1060     5.1840 c3         1 LS1       0.179100
     24 H1N         -2.1700    -0.9760    -5.3690 hn         1 LS1       0.339500
     25 H41          2.5680     0.9340    -3.6960 ha         1 LS1       0.111000
     26 H51          3.3220     1.2370    -6.0690 ha         1 LS1       0.115000
     27 H61          1.8160     0.6270    -7.9630 ha         1 LS1       0.115000
     28 H71         -0.4790    -0.2990    -7.5070 ha         1 LS1       0.120000
     29 H121         1.3500     0.4530    -1.6080 h4         1 LS1       0.199000
     30 H17N        -1.3740    -0.5880    -0.9150 hn         1 LS1       0.536000
     31 H211        -2.3210    -0.2110     1.1550 ha         1 LS1       0.126000
     32 H221        -2.0140     0.1430     3.5820 ha         1 LS1       0.137000
     33 H241         2.2700     0.4660     2.9700 ha         1 LS1       0.137000
     34 H251         1.9400     0.1050     0.5490 ha         1 LS1       0.126000
     35 H33N         0.8160    -0.8430     6.6930 hn         1 LS1       0.479000
     36 H351         0.6390    -3.0140     5.6550 h1         1 LS1       0.051033
     37 H352        -0.8350    -2.0560     5.4060 h1         1 LS1       0.051033
     38 H353         0.3620    -2.2190     4.0990 h1         1 LS1       0.051033
@<TRIPOS>BOND
     1     1     2 1   
     2     1     8 1   
     3     1    24 1   
     4     2     3 1   
     5     2    10 2   
     6     3     9 1   
     7     3    11 2   
     8     4     5 ar  
     9     4     9 ar  
    10     4    25 1   
    11     5     6 ar  
    12     5    26 1   
    13     6     7 ar  
    14     6    27 1   
    15     7     8 ar  
    16     7    28 1   
    17     8     9 ar  
    18    11    12 1   
    19    11    29 1   
    20    12    13 1   
    21    12    30 1   
    22    13    14 ar  
    23    13    18 ar  
    24    14    15 ar  
    25    14    31 1   
    26    15    16 ar  
    27    15    32 1   
    28    16    17 ar  
    29    16    19 1   
    30    17    18 ar  
    31    17    33 1   
    32    18    34 1   
    33    19    20 2   
    34    19    21 2   
    35    19    22 1   
    36    22    23 1   
    37    22    35 1   
    38    23    36 1   
    39    23    37 1   
    40    23    38 1   
@<TRIPOS>SUBSTRUCTURE
     1 LS1         1 TEMP              0 ****  ****    0 ROOT
