@<TRIPOS>MOLECULE
LS2
   42    45     1     0     0
SMALL
abcg2


@<TRIPOS>ATOM
      1 N1          26.9990    15.4400    12.9790 ns         1 LS2      -0.393100
      2 C2          26.4940    14.5850    12.0340 c          1 LS2       0.467700
      3 C3          26.9620    13.2260    12.4270 cc         1 LS2       0.264900
      4 C4          28.4130    12.5170    14.4800 ca         1 LS2      -0.122000
      5 C5          29.0810    13.0200    15.6220 ca         1 LS2       0.057400
      6 C6          29.0690    14.3900    15.9040 ca         1 LS2      -0.015000
      7 C7          28.3960    15.2710    15.0650 ca         1 LS2      -0.140000
      8 C8          27.7420    14.7560    13.9500 ca         1 LS2       0.071600
      9 C9          27.7370    13.3870    13.6340 ca         1 LS2      -0.123900
     10 O11         25.8000    14.8850    11.0630 o          1 LS2      -0.556000
     11 N12         26.7330    12.1010    11.8190 n2         1 LS2      -0.307400
     12 S13         28.5990    10.7970    14.3980 ss         1 LS2       0.044800
     13 C14         29.5410    10.8750    15.8760 cc         1 LS2       0.383100
     14 N15         29.7090    12.0470    16.3870 nd         1 LS2      -0.516100
     15 N19         25.9960    12.0920    10.7340 nu         1 LS2      -0.631300
     16 C21         25.7290    10.9090    10.0490 ca         1 LS2       0.316000
     17 C22         24.8440    10.9590     8.9670 ca         1 LS2      -0.140500
     18 C23         24.5510     9.8050     8.2600 ca         1 LS2      -0.071500
     19 C24         25.1310     8.5840     8.6100 ca         1 LS2      -0.107300
     20 C25         26.0110     8.5500     9.6930 ca         1 LS2      -0.071500
     21 C26         26.3130     9.6950    10.4140 ca         1 LS2      -0.140500
     22 C29         24.8430     7.3410     7.8280 c3         1 LS2      -0.282100
     23 S34         25.8170     7.2190     6.3080 s6         1 LS2       1.199100
     24 O35         25.5610     8.3990     5.5130 o          1 LS2      -0.533500
     25 O36         25.5540     5.9150     5.7400 o          1 LS2      -0.533500
     26 N37         27.4020     7.2650     6.7060 n7         1 LS2      -0.878300
     27 C39         28.0110     6.1490     7.4400 c3         1 LS2       0.190100
     28 H1N         26.8430    16.4370    12.9690 hn         1 LS2       0.346500
     29 H61         29.5850    14.7550    16.7820 ha         1 LS2       0.138000
     30 H71         28.3770    16.3320    15.2750 ha         1 LS2       0.129000
     31 H141        29.9400     9.9640    16.3010 h5         1 LS2       0.060800
     32 H19N        25.6020    12.9710    10.4000 hn         1 LS2       0.531000
     33 H221        24.3870    11.9010     8.6910 ha         1 LS2       0.133500
     34 H231        23.8650     9.8520     7.4250 ha         1 LS2       0.122000
     35 H251        26.4660     7.6110     9.9830 ha         1 LS2       0.122000
     36 H261        26.9940     9.6550    11.2520 ha         1 LS2       0.133500
     37 H291        23.8110     7.2920     7.4770 h1         1 LS2       0.103700
     38 H292        25.0660     6.4360     8.3930 h1         1 LS2       0.103700
     39 H37N        27.6860     8.1880     7.0140 hn         1 LS2       0.488000
     40 H391        27.7840     5.2190     6.9260 h1         1 LS2       0.052033
     41 H392        29.0890     6.3000     7.4310 h1         1 LS2       0.052033
     42 H393        27.6710     6.0830     8.4760 h1         1 LS2       0.052033
@<TRIPOS>BOND
     1     1     2 1   
     2     1     8 1   
     3     1    28 1   
     4     2     3 1   
     5     2    10 2   
     6     3     9 1   
     7     3    11 2   
     8     4     5 ar  
     9     4     9 ar  
    10     4    12 1   
    11     5     6 ar  
    12     5    14 1   
    13     6     7 ar  
    14     6    29 1   
    15     7     8 ar  
    16     7    30 1   
    17     8     9 ar  
    18    11    15 1   
    19    12    13 1   
    20    13    14 2   
    21    13    31 1   
    22    15    16 1   
    23    15    32 1   
    24    16    17 ar  
    25    16    21 ar  
    26    17    18 ar  
    27    17    33 1   
    28    18    19 ar  
    29    18    34 1   
    30    19    20 ar  
    31    19    22 1   
    32    20    21 ar  
    33    20    35 1   
    34    21    36 1   
    35    22    23 1   
    36    22    37 1   
    37    22    38 1   
    38    23    24 2   
    39    23    25 2   
    40    23    26 1   
    41    26    27 1   
    42    26    39 1   
    43    27    40 1   
    44    27    41 1   
    45    27    42 1   
@<TRIPOS>SUBSTRUCTURE
     1 LS2         1 TEMP              0 ****  ****    0 ROOT
