@<TRIPOS>MOLECULE
LS2
   42    45     1     0     0
SMALL
No Charge or Current Charge


@<TRIPOS>ATOM
      1 N1          26.9760    15.4570    13.0650 ns         1 LS2      -0.393100
      2 C2          26.4710    14.6270    12.0930 c          1 LS2       0.467700
      3 C3          26.9830    13.2690    12.4970 cc         1 LS2       0.264900
      4 C4          28.4750    12.5730    14.5380 ca         1 LS2      -0.122000
      5 C5          29.1420    13.0480    15.6580 ca         1 LS2       0.057400
      6 C6          29.1140    14.4280    15.9820 ca         1 LS2      -0.015000
      7 C7          28.4020    15.3330    15.1580 ca         1 LS2      -0.140000
      8 C8          27.7420    14.8130    14.0360 ca         1 LS2       0.071600
      9 C9          27.7670    13.4640    13.7170 ca         1 LS2      -0.123900
     10 O11         25.7730    14.9710    11.1430 o          1 LS2      -0.556000
     11 N12         26.7630    12.1400    11.8690 n2         1 LS2      -0.307400
     12 S13         28.6470    10.8380    14.3350 ss         1 LS2       0.044800
     13 C14         29.6290    10.9060    15.8170 cc         1 LS2       0.383100
     14 N15         29.8170    12.0950    16.4130 nd         1 LS2      -0.516100
     15 N19         26.0090    12.0720    10.7270 nu         1 LS2      -0.631300
     16 C21         25.7390    10.8920    10.0130 ca         1 LS2       0.316000
     17 C22         24.9490    10.9560     8.8520 ca         1 LS2      -0.140500
     18 C23         24.6620     9.7920     8.1170 ca         1 LS2      -0.071500
     19 C24         25.1680     8.5470     8.5340 ca         1 LS2      -0.107300
     20 C25         25.9520     8.4770     9.7000 ca         1 LS2      -0.071500
     21 C26         26.2380     9.6420    10.4330 ca         1 LS2      -0.140500
     22 C29         24.8530     7.2810     7.7390 c3         1 LS2      -0.282100
     23 S34         25.7510     7.1000     6.1830 s6         1 LS2       1.199100
     24 O35         25.4590     8.2270     5.2940 o          1 LS2      -0.533500
     25 O36         25.6190     5.7250     5.6950 o          1 LS2      -0.533500
     26 N37         27.3400     7.2890     6.6490 n7         1 LS2      -0.878300
     27 C39         27.9740     6.2280     7.4560 c3         1 LS2       0.190100
     28 H1N         26.8020    16.4560    13.0700 hn         1 LS2       0.346500
     29 H61         29.6400    14.7890    16.8620 ha         1 LS2       0.138000
     30 H71         28.3680    16.3940    15.3900 ha         1 LS2       0.129000
     31 H141        30.0440     9.9780    16.1900 h5         1 LS2       0.060800
     32 H19N        25.5860    12.9200    10.3210 hn         1 LS2       0.531000
     33 H221        24.5520    11.9090     8.5140 ha         1 LS2       0.133500
     34 H231        24.0450     9.8600     7.2230 ha         1 LS2       0.122000
     35 H251        26.3390     7.5200    10.0460 ha         1 LS2       0.122000
     36 H261        26.8450     9.5690    11.3300 ha         1 LS2       0.133500
     37 H291        23.7920     7.2530     7.4680 h1         1 LS2       0.103700
     38 H292        25.0810     6.3840     8.3250 h1         1 LS2       0.103700
     39 H37N        27.2460     8.1180     7.2360 hn         1 LS2       0.488000
     40 H391        28.0470     5.2910     6.8860 h1         1 LS2       0.052033
     41 H392        28.9920     6.5200     7.7460 h1         1 LS2       0.052033
     42 H393        27.4090     6.0230     8.3750 h1         1 LS2       0.052033
@<TRIPOS>BOND
     1     1     2 1   
     2     1     8 1   
     3     1    28 1   
     4     2     3 1   
     5     2    10 2   
     6     3     9 1   
     7     3    11 2   
     8     4     5 ar  
     9     4     9 ar  
    10     4    12 1   
    11     5     6 ar  
    12     5    14 1   
    13     6     7 ar  
    14     6    29 1   
    15     7     8 ar  
    16     7    30 1   
    17     8     9 ar  
    18    11    15 1   
    19    12    13 1   
    20    13    14 2   
    21    13    31 1   
    22    15    16 1   
    23    15    32 1   
    24    16    17 ar  
    25    16    21 ar  
    26    17    18 ar  
    27    17    33 1   
    28    18    19 ar  
    29    18    34 1   
    30    19    20 ar  
    31    19    22 1   
    32    20    21 ar  
    33    20    35 1   
    34    21    36 1   
    35    22    23 1   
    36    22    37 1   
    37    22    38 1   
    38    23    24 2   
    39    23    25 2   
    40    23    26 1   
    41    26    27 1   
    42    26    39 1   
    43    27    40 1   
    44    27    41 1   
    45    27    42 1   
@<TRIPOS>SUBSTRUCTURE
     1 LS2         1 TEMP              0 ****  ****    0 ROOT
