@<TRIPOS>MOLECULE
LS3
   43    47     1     0     0
SMALL
abcg2


@<TRIPOS>ATOM
      1 O5         -11.2950    51.6080    11.9070 o          1 LS3      -0.586000
      2 C6         -10.4060    51.2390    12.6850 c          1 LS3       0.579200
      3 N7          -9.9100    51.9820    13.7370 ns         1 LS3      -0.393100
      4 C8          -8.9130    51.2930    14.4190 ca         1 LS3       0.063600
      5 C9          -8.1610    51.6830    15.5120 ca         1 LS3      -0.141000
      6 C10         -7.2110    50.7910    16.0050 ca         1 LS3      -0.058000
      7 C11         -7.0170    49.5330    15.4150 ca         1 LS3      -0.150500
      8 C12         -6.0320    48.6080    15.9460 cc         1 LS3       0.176500
      9 O13         -5.1780    49.0470    16.9350 os         1 LS3      -0.277000
     10 C14         -4.3930    47.9860    17.2320 cc         1 LS3       0.436900
     11 N15         -4.6600    46.9300    16.5370 nd         1 LS3      -0.672000
     12 C16         -5.7100    47.3070    15.7060 cd         1 LS3       0.227900
     13 C17         -7.7880    49.1560    14.3030 ca         1 LS3      -0.056000
     14 C18         -8.7350    50.0320    13.8030 ca         1 LS3      -0.063800
     15 C19         -9.6710    49.9710    12.6940 cc         1 LS3      -0.289400
     16 C20         -9.8710    48.9730    11.7840 c2         1 LS3       0.154000
     17 N21        -10.7840    49.0480    10.8030 nu         1 LS3      -0.813000
     18 C22        -11.0150    48.1160     9.7870 ca         1 LS3       0.306000
     19 C23        -10.1890    47.0090     9.5770 ca         1 LS3      -0.125000
     20 C24        -10.4810    46.1320     8.5440 ca         1 LS3      -0.041300
     21 C25         -9.6600    44.9190     8.2060 c5         1 LS3      -0.243100
     22 S26        -10.0850    44.6080     6.4730 s6         1 LS3       1.077000
     23 O27        -10.1390    43.1900     6.1750 o          1 LS3      -0.511000
     24 O28         -9.2560    45.4480     5.6270 o          1 LS3      -0.511000
     25 C29        -11.7370    45.3390     6.5980 c5         1 LS3      -0.230100
     26 C30        -11.5740    46.3510     7.6970 ca         1 LS3      -0.104300
     27 C31        -12.3820    47.4630     7.8980 ca         1 LS3      -0.039000
     28 C32        -12.1110    48.3340     8.9420 ca         1 LS3      -0.144000
     29 H7N        -10.2370    52.9080    13.9640 hn         1 LS3       0.341500
     30 H91         -8.3030    52.6510    15.9750 ha         1 LS3       0.125000
     31 H101        -6.6160    51.0750    16.8620 ha         1 LS3       0.129000
     32 H141        -3.6460    48.1250    17.9950 h5         1 LS3       0.083100
     33 H161        -6.1570    46.6210    15.0070 h4         1 LS3       0.046100
     34 H171        -7.6350    48.1900    13.8390 ha         1 LS3       0.114000
     35 H201        -9.2800    48.0690    11.8400 h4         1 LS3       0.198000
     36 H21N       -11.3410    49.8990    10.7980 hn         1 LS3       0.539000
     37 H231        -9.3180    46.8310    10.1930 ha         1 LS3       0.125000
     38 H251        -9.9590    44.0340     8.7700 h1         1 LS3       0.115700
     39 H252        -8.5830    45.0620     8.2830 h1         1 LS3       0.115700
     40 H291       -12.4220    44.5290     6.8540 h1         1 LS3       0.114200
     41 H292       -12.0060    45.7580     5.6300 h1         1 LS3       0.114200
     42 H311       -13.2230    47.6540     7.2430 ha         1 LS3       0.129000
     43 H321       -12.7410    49.1990     9.1070 ha         1 LS3       0.131000
@<TRIPOS>BOND
     1     1     2 2   
     2     2     3 1   
     3     2    15 1   
     4     3     4 1   
     5     3    29 1   
     6     4     5 ar  
     7     4    14 ar  
     8     5     6 ar  
     9     5    30 1   
    10     6     7 ar  
    11     6    31 1   
    12     7     8 1   
    13     7    13 ar  
    14     8     9 1   
    15     8    12 2   
    16     9    10 1   
    17    10    11 2   
    18    10    32 1   
    19    11    12 1   
    20    12    33 1   
    21    13    14 ar  
    22    13    34 1   
    23    14    15 1   
    24    15    16 2   
    25    16    17 1   
    26    16    35 1   
    27    17    18 1   
    28    17    36 1   
    29    18    19 ar  
    30    18    28 ar  
    31    19    20 ar  
    32    19    37 1   
    33    20    21 1   
    34    20    26 ar  
    35    21    22 1   
    36    21    38 1   
    37    21    39 1   
    38    22    23 2   
    39    22    24 2   
    40    22    25 1   
    41    25    26 1   
    42    25    40 1   
    43    25    41 1   
    44    26    27 ar  
    45    27    28 ar  
    46    27    42 1   
    47    28    43 1   
@<TRIPOS>SUBSTRUCTURE
     1 LS3         1 TEMP              0 ****  ****    0 ROOT
