@<TRIPOS>MOLECULE
LS3
   43    47     1     0     0
SMALL
No Charge or Current Charge


@<TRIPOS>ATOM
      1 O5         -11.2450    51.6820    11.8720 o          1 LS3      -0.586000
      2 C6         -10.3850    51.3140    12.6600 c          1 LS3       0.579200
      3 N7          -9.9410    51.9840    13.7680 ns         1 LS3      -0.393100
      4 C8          -8.9530    51.3190    14.4910 ca         1 LS3       0.063600
      5 C9          -8.2780    51.6900    15.6540 ca         1 LS3      -0.141000
      6 C10         -7.3130    50.7930    16.1610 ca         1 LS3      -0.058000
      7 C11         -7.0410    49.5570    15.5070 ca         1 LS3      -0.150500
      8 C12         -6.0290    48.6490    16.0650 cc         1 LS3       0.176500
      9 O13         -5.3290    48.9330    17.1890 os         1 LS3      -0.277000
     10 C14         -4.5230    47.8380    17.3310 cc         1 LS3       0.436900
     11 N15         -4.6760    46.9110    16.3850 nd         1 LS3      -0.672000
     12 C16         -5.6540    47.4320    15.5570 cd         1 LS3       0.227900
     13 C17         -7.7520    49.2200    14.3250 ca         1 LS3      -0.056000
     14 C18         -8.7060    50.1260    13.8410 ca         1 LS3      -0.063800
     15 C19         -9.5820    50.0660    12.6730 cc         1 LS3      -0.289400
     16 C20         -9.6670    49.0700    11.7580 c2         1 LS3       0.154000
     17 N21        -10.5480    49.1290    10.6790 nu         1 LS3      -0.813000
     18 C22        -10.8740    48.1880     9.7000 ca         1 LS3       0.306000
     19 C23        -10.0110    47.1180     9.3910 ca         1 LS3      -0.125000
     20 C24        -10.3700    46.1920     8.3980 ca         1 LS3      -0.041300
     21 C25         -9.5080    45.0120     8.0010 c5         1 LS3      -0.243100
     22 S26        -10.2650    44.3330     6.4360 s6         1 LS3       1.077000
     23 O27        -10.4980    42.8880     6.5690 o          1 LS3      -0.511000
     24 O28         -9.5420    44.8550     5.2680 o          1 LS3      -0.511000
     25 C29        -11.8640    45.2710     6.6630 c5         1 LS3      -0.230100
     26 C30        -11.5780    46.3270     7.7130 ca         1 LS3      -0.104300
     27 C31        -12.4450    47.3910     8.0070 ca         1 LS3      -0.039000
     28 C32        -12.0880    48.3210     9.0010 ca         1 LS3      -0.144000
     29 H7N        -10.3110    52.8880    14.0350 hn         1 LS3       0.341500
     30 H91         -8.4870    52.6330    16.1510 ha         1 LS3       0.125000
     31 H101        -6.7740    51.0620    17.0670 ha         1 LS3       0.129000
     32 H141        -3.8440    47.8080    18.1760 h5         1 LS3       0.083100
     33 H161        -6.0110    46.9110    14.6780 h4         1 LS3       0.046100
     34 H171        -7.5730    48.2870    13.7980 ha         1 LS3       0.114000
     35 H201        -9.0420    48.1770    11.8490 h4         1 LS3       0.198000
     36 H21N       -11.1510    49.9590    10.6880 hn         1 LS3       0.539000
     37 H231        -9.0640    47.0060     9.9090 ha         1 LS3       0.125000
     38 H251        -9.5350    44.2070     8.7430 h1         1 LS3       0.115700
     39 H252        -8.4730    45.2860     7.7700 h1         1 LS3       0.115700
     40 H291       -12.6150    44.5450     6.9920 h1         1 LS3       0.114200
     41 H292       -12.1370    45.6880     5.6870 h1         1 LS3       0.114200
     42 H311       -13.3870    47.4960     7.4710 ha         1 LS3       0.129000
     43 H321       -12.7610    49.1430     9.2280 ha         1 LS3       0.131000
@<TRIPOS>BOND
     1     1     2 2   
     2     2     3 1   
     3     2    15 1   
     4     3     4 1   
     5     3    29 1   
     6     4     5 ar  
     7     4    14 ar  
     8     5     6 ar  
     9     5    30 1   
    10     6     7 ar  
    11     6    31 1   
    12     7     8 1   
    13     7    13 ar  
    14     8     9 1   
    15     8    12 2   
    16     9    10 1   
    17    10    11 2   
    18    10    32 1   
    19    11    12 1   
    20    12    33 1   
    21    13    14 ar  
    22    13    34 1   
    23    14    15 1   
    24    15    16 2   
    25    16    17 1   
    26    16    35 1   
    27    17    18 1   
    28    17    36 1   
    29    18    19 ar  
    30    18    28 ar  
    31    19    20 ar  
    32    19    37 1   
    33    20    21 1   
    34    20    26 ar  
    35    21    22 1   
    36    21    38 1   
    37    21    39 1   
    38    22    23 2   
    39    22    24 2   
    40    22    25 1   
    41    25    26 1   
    42    25    40 1   
    43    25    41 1   
    44    26    27 ar  
    45    27    28 ar  
    46    27    42 1   
    47    28    43 1   
@<TRIPOS>SUBSTRUCTURE
     1 LS3         1 TEMP              0 ****  ****    0 ROOT
