@<TRIPOS>MOLECULE
LS4
   41    44     1     0     0
SMALL
No Charge or Current Charge


@<TRIPOS>ATOM
      1 O5          -1.0900     2.3950     3.4950 o          1 LS4      -0.583000
      2 C6          -0.5380     1.5620     4.2000 c          1 LS4       0.580200
      3 N7          -0.3060     1.6450     5.5470 ns         1 LS4      -0.392100
      4 C8           0.3400     0.5370     6.0950 ca         1 LS4       0.052600
      5 C9           0.7300     0.2750     7.4110 ca         1 LS4      -0.138000
      6 C10          1.3750    -0.9550     7.6650 ca         1 LS4      -0.084000
      7 C11          1.6080    -1.8750     6.6120 ca         1 LS4      -0.134000
      8 C12          1.2010    -1.5820     5.2900 ca         1 LS4      -0.072000
      9 C13          0.5630    -0.3550     5.0610 ca         1 LS4      -0.070800
     10 C14          0.0310     0.2380     3.8380 cc         1 LS4      -0.270400
     11 C15          0.0390    -0.2990     2.5930 c2         1 LS4       0.140000
     12 N16         -0.5010     0.3660     1.4920 nu         1 LS4      -0.812000
     13 C17         -0.6950    -0.0400     0.1730 ca         1 LS4       0.362000
     14 C18         -1.6420     0.6330    -0.6130 ca         1 LS4      -0.188000
     15 C19         -1.8590     0.2540    -1.9480 ca         1 LS4       0.037000
     16 C20         -1.1180    -0.8070    -2.5030 ca         1 LS4      -0.340500
     17 C21         -0.1630    -1.4830    -1.7170 ca         1 LS4       0.037000
     18 C22          0.0450    -1.0950    -0.3840 ca         1 LS4      -0.188000
     19 S23         -1.3680    -1.2810    -4.2170 sy         1 LS4       1.194600
     20 O24         -0.8600    -2.6330    -4.4580 o          1 LS4      -0.522500
     21 O25         -2.6920    -0.8480    -4.6610 o          1 LS4      -0.522500
     22 N26         -0.3710    -0.3030    -5.1040 nu         1 LS4      -0.864000
     23 C27          0.6580     0.3290    -4.5160 cc         1 LS4       0.698300
     24 S28          0.6790     2.0430    -4.1940 ss         1 LS4      -0.062400
     25 C29          2.2810     1.8200    -3.5520 cc         1 LS4      -0.271000
     26 C30          2.6820     0.5070    -3.6560 cd         1 LS4       0.315900
     27 N31          1.7470    -0.3470    -4.2260 nd         1 LS4      -0.703000
     28 H71         -0.5890     2.4490     6.0930 hn         1 LS4       0.339500
     29 H91          0.5450     0.9910     8.2080 ha         1 LS4       0.120000
     30 H101         1.6960    -1.1980     8.6750 ha         1 LS4       0.114000
     31 H111         2.1070    -2.8190     6.8230 ha         1 LS4       0.115000
     32 H121         1.3790    -2.2870     4.4820 ha         1 LS4       0.111000
     33 H151         0.4720    -1.2880     2.4200 h4         1 LS4       0.199000
     34 H16N        -0.9550     1.2550     1.7270 hn         1 LS4       0.535000
     35 H181        -2.2170     1.4520    -0.1910 ha         1 LS4       0.126000
     36 H191        -2.6000     0.7900    -2.5420 ha         1 LS4       0.141500
     37 H211         0.4280    -2.2970    -2.1370 ha         1 LS4       0.141500
     38 H221         0.7940    -1.6130     0.2060 ha         1 LS4       0.126000
     39 H26N        -1.0310     0.3460    -5.4980 hn         1 LS4       0.523000
     40 H291         2.8290     2.6610    -3.1480 h4         1 LS4       0.165000
     41 H301         3.6410     0.1160    -3.3390 h4         1 LS4       0.045100
@<TRIPOS>BOND
     1     1     2 2   
     2     2     3 1   
     3     2    10 1   
     4     3     4 1   
     5     3    28 1   
     6     4     5 ar  
     7     4     9 ar  
     8     5     6 ar  
     9     5    29 1   
    10     6     7 ar  
    11     6    30 1   
    12     7     8 ar  
    13     7    31 1   
    14     8     9 ar  
    15     8    32 1   
    16     9    10 1   
    17    10    11 2   
    18    11    12 1   
    19    11    33 1   
    20    12    13 1   
    21    12    34 1   
    22    13    14 ar  
    23    13    18 ar  
    24    14    15 ar  
    25    14    35 1   
    26    15    16 ar  
    27    15    36 1   
    28    16    17 ar  
    29    16    19 1   
    30    17    18 ar  
    31    17    37 1   
    32    18    38 1   
    33    19    20 2   
    34    19    21 2   
    35    19    22 1   
    36    22    23 1   
    37    22    39 1   
    38    23    24 1   
    39    23    27 2   
    40    24    25 1   
    41    25    26 2   
    42    25    40 1   
    43    26    27 1   
    44    26    41 1   
@<TRIPOS>SUBSTRUCTURE
     1 LS4         1 TEMP              0 ****  ****    0 ROOT
