@<TRIPOS>MOLECULE
LS4
   41    44     1     0     0
SMALL
bcc


@<TRIPOS>ATOM
      1 O5          -1.7050     2.0660     3.8130 o          1 LS4      -0.658500
      2 C6          -0.9580     1.3220     4.4410 c          1 LS4       0.722700
      3 N7          -0.6640     1.4190     5.7710 ns         1 LS4      -0.459100
      4 C8           0.2110     0.4220     6.1770 ca         1 LS4       0.052600
      5 C9           0.7400     0.1830     7.4300 ca         1 LS4      -0.156000
      6 C10          1.6060    -0.8990     7.5700 ca         1 LS4      -0.102000
      7 C11          1.9260    -1.7090     6.4850 ca         1 LS4      -0.152000
      8 C12          1.3870    -1.4560     5.2270 ca         1 LS4      -0.090000
      9 C13          0.5230    -0.3830     5.0700 ca         1 LS4      -0.070800
     10 C14         -0.2050     0.1650     3.9420 cc         1 LS4      -0.270400
     11 C15         -0.2210    -0.2640     2.6550 c2         1 LS4       0.190000
     12 N16         -0.9400     0.3120     1.6750 nu         1 LS4      -0.618400
     13 C17         -0.9780    -0.0560     0.3430 ca         1 LS4       0.223600
     14 C18         -1.8840     0.6140    -0.4880 ca         1 LS4      -0.206000
     15 C19         -1.9740     0.2960    -1.8250 ca         1 LS4       0.019000
     16 C20         -1.1490    -0.6950    -2.3490 ca         1 LS4      -0.340500
     17 C21         -0.2420    -1.3630    -1.5390 ca         1 LS4       0.019000
     18 C22         -0.1570    -1.0480    -0.1970 ca         1 LS4      -0.206000
     19 S23         -1.2600    -1.0800    -4.0580 sy         1 LS4       1.336200
     20 O24         -0.5460    -2.3120    -4.3140 o          1 LS4      -0.593300
     21 O25         -2.6350    -0.9300    -4.5000 o          1 LS4      -0.593300
     22 N26         -0.4660     0.1710    -4.8380 nu         1 LS4      -0.808800
     23 C27          0.8520     0.4820    -4.6110 cc         1 LS4       0.698300
     24 S28          1.5300     1.9470    -5.2450 ss         1 LS4      -0.207300
     25 C29          3.0370     1.5070    -4.5300 cc         1 LS4      -0.209400
     26 C30          2.9060     0.3260    -3.8850 cd         1 LS4       0.381200
     27 N31          1.6670    -0.2530    -3.9340 nd         1 LS4      -0.703000
     28 H71         -1.0550     2.1230     6.3780 hn         1 LS4       0.339500
     29 H91          0.4940     0.8120     8.2760 ha         1 LS4       0.138000
     30 H101         2.0360    -1.1100     8.5410 ha         1 LS4       0.132000
     31 H111         2.6000    -2.5450     6.6190 ha         1 LS4       0.133000
     32 H121         1.6430    -2.0940     4.3890 ha         1 LS4       0.129000
     33 H151         0.3670    -1.1290     2.3790 h4         1 LS4       0.149000
     34 H16N        -1.5110     1.1030     1.9510 hn         1 LS4       0.479800
     35 H181        -2.5260     1.3830    -0.0770 ha         1 LS4       0.144000
     36 H191        -2.6860     0.8210    -2.4470 ha         1 LS4       0.159500
     37 H211         0.4050    -2.1260    -1.9450 ha         1 LS4       0.159500
     38 H221         0.5640    -1.5790     0.4080 ha         1 LS4       0.144000
     39 H26N        -1.0710     0.8580    -5.2700 hn         1 LS4       0.467800
     40 H291         3.9100     2.1310    -4.6340 h4         1 LS4       0.183000
     41 H301         3.7030    -0.1720    -3.3530 h4         1 LS4       0.045100
@<TRIPOS>BOND
     1     1     2 2   
     2     2     3 1   
     3     2    10 1   
     4     3     4 1   
     5     3    28 1   
     6     4     5 ar  
     7     4     9 ar  
     8     5     6 ar  
     9     5    29 1   
    10     6     7 ar  
    11     6    30 1   
    12     7     8 ar  
    13     7    31 1   
    14     8     9 ar  
    15     8    32 1   
    16     9    10 1   
    17    10    11 2   
    18    11    12 1   
    19    11    33 1   
    20    12    13 1   
    21    12    34 1   
    22    13    14 ar  
    23    13    18 ar  
    24    14    15 ar  
    25    14    35 1   
    26    15    16 ar  
    27    15    36 1   
    28    16    17 ar  
    29    16    19 1   
    30    17    18 ar  
    31    17    37 1   
    32    18    38 1   
    33    19    20 2   
    34    19    21 2   
    35    19    22 1   
    36    22    23 1   
    37    22    39 1   
    38    23    24 1   
    39    23    27 2   
    40    24    25 1   
    41    25    26 2   
    42    25    40 1   
    43    26    27 1   
    44    26    41 1   
@<TRIPOS>SUBSTRUCTURE
     1 LS4         1 TEMP              0 ****  ****    0 ROOT
