@<TRIPOS>MOLECULE
LS5
   40    42     1     0     0
SMALL
No Charge or Current Charge


@<TRIPOS>ATOM
      1 N1          -1.6450     0.1610     5.1960 ns         1 LS5      -0.392100
      2 C2          -1.6760     0.0660     3.8300 c          1 LS5       0.580200
      3 C3          -0.2400     0.0860     3.4550 cc         1 LS5      -0.267400
      4 C4           1.9130     0.2500     4.9150 ca         1 LS5      -0.071000
      5 C5           2.3600     0.3550     6.2510 ca         1 LS5      -0.135000
      6 C6           1.4340     0.4000     7.3250 ca         1 LS5      -0.083000
      7 C7           0.0460     0.3410     7.0760 ca         1 LS5      -0.138000
      8 C8          -0.3650     0.2380     5.7440 ca         1 LS5       0.052600
      9 C9           0.5310     0.1930     4.6900 ca         1 LS5      -0.071800
     10 O11         -2.6690    -0.0200     3.1200 o          1 LS5      -0.580000
     11 C12          0.2430     0.0130     2.1890 c2         1 LS5       0.138000
     12 N17         -0.5930    -0.0870     1.0770 nu         1 LS5      -0.811000
     13 C20         -0.3120    -0.2860    -0.2730 ca         1 LS5       0.366000
     14 C21         -1.3140    -0.8020    -1.1080 ca         1 LS5      -0.184000
     15 C22         -1.0640    -1.0120    -2.4750 ca         1 LS5       0.032500
     16 C23          0.2000    -0.6980    -3.0110 ca         1 LS5      -0.352500
     17 C24          1.2070    -0.1750    -2.1760 ca         1 LS5       0.032500
     18 C25          0.9450     0.0300    -0.8120 ca         1 LS5      -0.184000
     19 S30          0.5260    -0.9570    -4.7580 sy         1 LS5       1.182600
     20 O31         -0.4470    -1.8940    -5.3230 o          1 LS5      -0.531500
     21 O32          1.9660    -1.0850    -4.9840 o          1 LS5      -0.531500
     22 N33          0.1740     0.4740    -5.5070 nu         1 LS5      -0.901300
     23 C35         -0.6000     1.3010    -4.9160 c2         1 LS5       0.831100
     24 N36         -1.6890     1.4810    -5.4660 n2         1 LS5      -0.873100
     25 N37          0.2040     2.3100    -4.7690 nv         1 LS5      -1.051200
     26 H1N         -2.4890     0.1700     5.7540 hn         1 LS5       0.339500
     27 H41          2.6220     0.2150     4.0910 ha         1 LS5       0.110000
     28 H51          3.4270     0.4010     6.4590 ha         1 LS5       0.115000
     29 H61          1.7970     0.4810     8.3470 ha         1 LS5       0.115000
     30 H71         -0.6760     0.3750     7.8890 ha         1 LS5       0.120000
     31 H121         1.3210     0.0240     2.0070 h4         1 LS5       0.198000
     32 H17N        -1.5880    -0.1660     1.3130 hn         1 LS5       0.537000
     33 H211        -2.2900    -1.0470    -0.7010 ha         1 LS5       0.127500
     34 H221        -1.8550    -1.4160    -3.1070 ha         1 LS5       0.137500
     35 H241         2.1890     0.0760    -2.5770 ha         1 LS5       0.137500
     36 H251         1.7250     0.4440    -0.1810 ha         1 LS5       0.127500
     37 H33N         1.0690     0.9190    -5.5350 hn         1 LS5       0.498000
     38 H36N        -1.8260     0.6260    -6.0150 hn         1 LS5       0.420400
     39 H371         0.2990     2.5350    -3.7870 hn         1 LS5       0.479500
     40 H372        -0.2060     3.0910    -5.2630 hn         1 LS5       0.479500
@<TRIPOS>BOND
     1     1     2 1   
     2     1     8 1   
     3     1    26 1   
     4     2     3 1   
     5     2    10 2   
     6     3     9 1   
     7     3    11 2   
     8     4     5 ar  
     9     4     9 ar  
    10     4    27 1   
    11     5     6 ar  
    12     5    28 1   
    13     6     7 ar  
    14     6    29 1   
    15     7     8 ar  
    16     7    30 1   
    17     8     9 ar  
    18    11    12 1   
    19    11    31 1   
    20    12    13 1   
    21    12    32 1   
    22    13    14 ar  
    23    13    18 ar  
    24    14    15 ar  
    25    14    33 1   
    26    15    16 ar  
    27    15    34 1   
    28    16    17 ar  
    29    16    19 1   
    30    17    18 ar  
    31    17    35 1   
    32    18    36 1   
    33    19    20 2   
    34    19    21 2   
    35    19    22 1   
    36    22    23 1   
    37    22    37 1   
    38    23    24 2   
    39    23    25 1   
    40    24    38 1   
    41    25    39 1   
    42    25    40 1   
@<TRIPOS>SUBSTRUCTURE
     1 LS5         1 TEMP              0 ****  ****    0 ROOT
