@<TRIPOS>MOLECULE
LS5
   40    42     1     0     0
SMALL
bcc


@<TRIPOS>ATOM
      1 N1          -1.5930    -0.1070     5.2690 ns         1 LS5      -0.459100
      2 C2          -1.6390    -0.2440     3.9110 c          1 LS5       0.722700
      3 C3          -0.2610    -0.0580     3.4380 cc         1 LS5      -0.267400
      4 C4           1.9070     0.4400     4.8030 ca         1 LS5      -0.089000
      5 C5           2.3750     0.6410     6.0980 ca         1 LS5      -0.153000
      6 C6           1.5060     0.5970     7.1840 ca         1 LS5      -0.101000
      7 C7           0.1460     0.3500     7.0060 ca         1 LS5      -0.156000
      8 C8          -0.3050     0.1520     5.7150 ca         1 LS5       0.052600
      9 C9           0.5570     0.1930     4.6090 ca         1 LS5      -0.071800
     10 O11         -2.6430    -0.4760     3.2450 o          1 LS5      -0.655500
     11 C12          0.1190    -0.1300     2.1370 c2         1 LS5       0.188000
     12 N17         -0.7230    -0.3720     1.1170 nu         1 LS5      -0.617400
     13 C20         -0.4050    -0.4780    -0.2230 ca         1 LS5       0.227600
     14 C21         -1.4450    -0.7420    -1.1180 ca         1 LS5      -0.202000
     15 C22         -1.1970    -0.8730    -2.4690 ca         1 LS5       0.014500
     16 C23          0.1030    -0.7390    -2.9400 ca         1 LS5      -0.352500
     17 C24          1.1490    -0.4740    -2.0620 ca         1 LS5       0.014500
     18 C25          0.8990    -0.3420    -0.7110 ca         1 LS5      -0.202000
     19 S30          0.4490    -0.8980    -4.6560 sy         1 LS5       1.324200
     20 O31         -0.6960    -1.5170    -5.3000 o          1 LS5      -0.602300
     21 O32          1.7730    -1.4640    -4.8280 o          1 LS5      -0.602300
     22 N33          0.5910     0.6570    -5.2330 nu         1 LS5      -0.846100
     23 C35         -0.4230     1.6280    -5.1160 c2         1 LS5       0.831100
     24 N36         -1.6770     1.4130    -5.1460 n2         1 LS5      -0.873100
     25 N37          0.0780     2.8780    -4.9250 nv         1 LS5      -0.940800
     26 H1N         -2.4000    -0.1930     5.8670 hn         1 LS5       0.339500
     27 H41          2.5920     0.4760     3.9660 ha         1 LS5       0.128000
     28 H51          3.4280     0.8320     6.2620 ha         1 LS5       0.133000
     29 H61          1.8870     0.7570     8.1830 ha         1 LS5       0.133000
     30 H71         -0.5300     0.3150     7.8500 ha         1 LS5       0.138000
     31 H121         1.1620     0.0130     1.8850 h4         1 LS5       0.148000
     32 H17N        -1.6970    -0.5010     1.3690 hn         1 LS5       0.481800
     33 H211        -2.4580    -0.8530    -0.7520 ha         1 LS5       0.145500
     34 H221        -2.0190    -1.0880    -3.1370 ha         1 LS5       0.155500
     35 H241         2.1660    -0.3740    -2.4160 ha         1 LS5       0.155500
     36 H251         1.7360    -0.1450    -0.0570 ha         1 LS5       0.145500
     37 H33N         1.5490     0.9850    -5.2240 hn         1 LS5       0.442800
     38 H36N        -1.9080     0.4490    -5.3390 hn         1 LS5       0.420400
     39 H371        -0.5460     3.6350    -5.1470 hn         1 LS5       0.424300
     40 H372         1.0450     3.0660    -5.1290 hn         1 LS5       0.424300
@<TRIPOS>BOND
     1     1     2 1   
     2     1     8 1   
     3     1    26 1   
     4     2     3 1   
     5     2    10 2   
     6     3     9 1   
     7     3    11 2   
     8     4     5 ar  
     9     4     9 ar  
    10     4    27 1   
    11     5     6 ar  
    12     5    28 1   
    13     6     7 ar  
    14     6    29 1   
    15     7     8 ar  
    16     7    30 1   
    17     8     9 ar  
    18    11    12 1   
    19    11    31 1   
    20    12    13 1   
    21    12    32 1   
    22    13    14 ar  
    23    13    18 ar  
    24    14    15 ar  
    25    14    33 1   
    26    15    16 ar  
    27    15    34 1   
    28    16    17 ar  
    29    16    19 1   
    30    17    18 ar  
    31    17    35 1   
    32    18    36 1   
    33    19    20 2   
    34    19    21 2   
    35    19    22 1   
    36    22    23 1   
    37    22    37 1   
    38    23    24 2   
    39    23    25 1   
    40    24    38 1   
    41    25    39 1   
    42    25    40 1   
@<TRIPOS>SUBSTRUCTURE
     1 LS5         1 TEMP              0 ****  ****    0 ROOT
