@<TRIPOS>MOLECULE
LS6
   42    43     1     0     0
SMALL
No Charge or Current Charge


@<TRIPOS>ATOM
      1 C10        -47.7760     2.8720    -5.8130 c6         1 LS6       0.167300
      2 C13        -46.4320    -0.6190    -6.9400 c2         1 LS6      -0.116200
      3 C15        -44.6860    -2.3940    -6.6170 c          1 LS6       0.601300
      4 C20        -49.6360     1.6160    -6.8160 c6         1 LS6       0.167300
      5 C01        -49.3850     5.4560    -6.4450 c3         1 LS6      -0.032100
      6 C02        -50.4770     6.4940    -6.2220 ca         1 LS6      -0.082300
      7 C03        -51.1330     7.0850    -7.3200 ca         1 LS6      -0.107000
      8 C04        -52.1450     8.0390    -7.1110 ca         1 LS6      -0.109500
      9 C05        -52.5070     8.4070    -5.8040 ca         1 LS6      -0.111000
     10 C06        -51.8570     7.8190    -4.7060 ca         1 LS6      -0.109500
     11 C07        -50.8460     6.8650    -4.9140 ca         1 LS6      -0.107000
     12 C08        -49.9300     4.0130    -6.3400 c3         1 LS6       0.169800
     13 C11        -46.7590     1.8050    -6.2880 c6         1 LS6      -0.069400
     14 C12        -47.4210     0.4120    -6.4150 c6         1 LS6      -0.046500
     15 C14        -45.6720    -1.3910    -6.1270 ce         1 LS6      -0.316200
     16 C19        -48.6690     0.5200    -7.3250 c6         1 LS6      -0.069400
     17 N09        -48.9670     2.9430    -6.7120 n3         1 LS6      -0.718600
     18 N17        -43.9610    -3.0180    -5.6110 ns         1 LS6      -0.376400
     19 O16        -44.5140    -2.6320    -7.8050 o          1 LS6      -0.568100
     20 O18        -43.1460    -4.1840    -5.8870 oh         1 LS6      -0.435100
     21 H1         -47.2540     3.8390    -5.7780 h1         1 LS6       0.031700
     22 H2         -48.0900     2.6360    -4.7850 h1         1 LS6       0.031700
     23 H3         -46.3540    -0.7060    -8.0280 ha         1 LS6       0.196000
     24 H5         -50.4910     1.6750    -7.5060 h1         1 LS6       0.031700
     25 H6         -50.0350     1.3140    -5.8350 h1         1 LS6       0.031700
     26 H7         -48.9270     5.5910    -7.4320 hc         1 LS6       0.054700
     27 H8         -48.5860     5.6050    -5.7100 hc         1 LS6       0.054700
     28 H9         -50.8610     6.8050    -8.3350 ha         1 LS6       0.110500
     29 H10        -52.6480     8.4920    -7.9620 ha         1 LS6       0.111500
     30 H11        -53.2900     9.1450    -5.6430 ha         1 LS6       0.112000
     31 H12        -52.1370     8.1020    -3.6930 ha         1 LS6       0.111500
     32 H13        -50.3490     6.4140    -4.0580 ha         1 LS6       0.110500
     33 H14        -50.8040     3.9500    -7.0020 h1         1 LS6       0.033700
     34 H15        -50.2950     3.8490    -5.3170 h1         1 LS6       0.033700
     35 H16        -45.9180     1.7590    -5.5820 hc         1 LS6       0.052700
     36 H17        -46.3380     2.1090    -7.2560 hc         1 LS6       0.052700
     37 H18        -47.7560     0.0970    -5.4160 hc         1 LS6       0.049700
     38 H19        -45.7480    -1.2870    -5.0460 ha         1 LS6       0.177000
     39 H21        -49.1920    -0.4450    -7.3630 hc         1 LS6       0.052700
     40 H22        -48.3670     0.7550    -8.3550 hc         1 LS6       0.052700
     41 H24        -44.2410    -2.8860    -4.6400 hn         1 LS6       0.326500
     42 H25        -42.2780    -3.9630    -5.4730 ho         1 LS6       0.449000
@<TRIPOS>BOND
     1     1    13 1   
     2     1    17 1   
     3     1    21 1   
     4     1    22 1   
     5     2    14 1   
     6     2    15 2   
     7     2    23 1   
     8     3    15 1   
     9     3    18 1   
    10     3    19 2   
    11     4    16 1   
    12     4    17 1   
    13     4    24 1   
    14     4    25 1   
    15     5     6 1   
    16     5    12 1   
    17     5    26 1   
    18     5    27 1   
    19     6     7 ar  
    20     6    11 ar  
    21     7     8 ar  
    22     7    28 1   
    23     8     9 ar  
    24     8    29 1   
    25     9    10 ar  
    26     9    30 1   
    27    10    11 ar  
    28    10    31 1   
    29    11    32 1   
    30    12    17 1   
    31    12    33 1   
    32    12    34 1   
    33    13    14 1   
    34    13    35 1   
    35    13    36 1   
    36    14    16 1   
    37    14    37 1   
    38    15    38 1   
    39    16    39 1   
    40    16    40 1   
    41    18    20 1   
    42    18    41 1   
    43    20    42 1   
@<TRIPOS>SUBSTRUCTURE
     1 LS6         1 TEMP              0 ****  ****    0 ROOT
