@<TRIPOS>MOLECULE
LS6
   42    43     1     0     0
SMALL
bcc


@<TRIPOS>ATOM
      1 C10        -47.7460     2.9980    -5.7120 c6         1 LS6       0.167300
      2 C13        -46.2020    -0.3530    -6.7520 c2         1 LS6      -0.066200
      3 C15        -44.7370    -2.3200    -6.5980 c          1 LS6       0.668300
      4 C20        -49.4400     1.7020    -6.7870 c6         1 LS6       0.167300
      5 C01        -49.3760     5.4510    -6.6380 c3         1 LS6      -0.032100
      6 C02        -50.4810     6.4270    -6.3490 ca         1 LS6      -0.082300
      7 C03        -51.4040     6.7770    -7.3330 ca         1 LS6      -0.125000
      8 C04        -52.4530     7.6420    -7.0530 ca         1 LS6      -0.127500
      9 C05        -52.5970     8.1730    -5.7770 ca         1 LS6      -0.129000
     10 C06        -51.6850     7.8310    -4.7870 ca         1 LS6      -0.127500
     11 C07        -50.6380     6.9650    -5.0730 ca         1 LS6      -0.125000
     12 C08        -49.8320     4.0210    -6.3450 c3         1 LS6       0.169800
     13 C11        -46.6650     2.0080    -6.1150 c6         1 LS6      -0.069400
     14 C12        -47.2440     0.6000    -6.2740 c6         1 LS6      -0.046500
     15 C14        -45.7850    -1.4180    -6.0710 ce         1 LS6      -0.266200
     16 C19        -48.4290     0.6610    -7.2400 c6         1 LS6      -0.069400
     17 N09        -48.8370     3.0180    -6.6710 n3         1 LS6      -0.718600
     18 N17        -44.4230    -3.3110    -5.7280 ns         1 LS6      -0.443400
     19 O16        -44.1800    -2.1740    -7.6730 o          1 LS6      -0.568100
     20 O18        -43.6450    -4.3460    -6.1550 oh         1 LS6      -0.396100
     21 H1         -47.3040     3.9930    -5.6400 h1         1 LS6       0.031700
     22 H2         -48.1130     2.7420    -4.7010 h1         1 LS6       0.031700
     23 H3         -45.7640    -0.1380    -7.7230 ha         1 LS6       0.146000
     24 H5         -50.2570     1.7560    -7.5100 h1         1 LS6       0.031700
     25 H6         -49.8880     1.3750    -5.8300 h1         1 LS6       0.031700
     26 H7         -49.0750     5.5150    -7.6870 hc         1 LS6       0.054700
     27 H8         -48.5010     5.7090    -6.0380 hc         1 LS6       0.054700
     28 H9         -51.2980     6.3680    -8.3320 ha         1 LS6       0.128500
     29 H10        -53.1580     7.9040    -7.8320 ha         1 LS6       0.129500
     30 H11        -53.4120     8.8510    -5.5570 ha         1 LS6       0.130000
     31 H12        -51.7870     8.2420    -3.7900 ha         1 LS6       0.129500
     32 H13        -49.9290     6.7060    -4.2950 ha         1 LS6       0.128500
     33 H14        -50.7210     3.8210    -6.9490 h1         1 LS6       0.033700
     34 H15        -50.1540     3.9490    -5.2910 h1         1 LS6       0.033700
     35 H16        -45.8760     2.0080    -5.3600 hc         1 LS6       0.052700
     36 H17        -46.2100     2.3270    -7.0580 hc         1 LS6       0.052700
     37 H18        -47.6130     0.2650    -5.2980 hc         1 LS6       0.049700
     38 H19        -46.2150    -1.6440    -5.0990 ha         1 LS6       0.127000
     39 H21        -48.9190    -0.3130    -7.3010 hc         1 LS6       0.052700
     40 H22        -48.0730     0.9090    -8.2450 hc         1 LS6       0.052700
     41 H24        -45.0470    -3.5560    -4.9720 hn         1 LS6       0.326500
     42 H25        -42.7640    -4.1820    -5.7970 ho         1 LS6       0.410000
@<TRIPOS>BOND
     1     1    13 1   
     2     1    17 1   
     3     1    21 1   
     4     1    22 1   
     5     2    14 1   
     6     2    15 2   
     7     2    23 1   
     8     3    15 1   
     9     3    18 1   
    10     3    19 2   
    11     4    16 1   
    12     4    17 1   
    13     4    24 1   
    14     4    25 1   
    15     5     6 1   
    16     5    12 1   
    17     5    26 1   
    18     5    27 1   
    19     6     7 ar  
    20     6    11 ar  
    21     7     8 ar  
    22     7    28 1   
    23     8     9 ar  
    24     8    29 1   
    25     9    10 ar  
    26     9    30 1   
    27    10    11 ar  
    28    10    31 1   
    29    11    32 1   
    30    12    17 1   
    31    12    33 1   
    32    12    34 1   
    33    13    14 1   
    34    13    35 1   
    35    13    36 1   
    36    14    16 1   
    37    14    37 1   
    38    15    38 1   
    39    16    39 1   
    40    16    40 1   
    41    18    20 1   
    42    18    41 1   
    43    20    42 1   
@<TRIPOS>SUBSTRUCTURE
     1 LS6         1 TEMP              0 ****  ****    0 ROOT
