@<TRIPOS>MOLECULE
LS7
   52    56     1     0     0
SMALL
bcc


@<TRIPOS>ATOM
      1 C4           2.6810     1.9370    -0.2410 ca         1 LS7      -0.147300
      2 C5           1.3190     1.7120    -0.2610 ca         1 LS7      -0.094000
      3 C6           0.8550     0.3950    -0.1940 ca         1 LS7       0.058600
      4 C7           1.7710    -0.6690    -0.1120 ca         1 LS7       0.059600
      5 C8           3.1430    -0.4280    -0.0890 ca         1 LS7      -0.157000
      6 C9           3.5760     0.8820    -0.1570 ca         1 LS7       0.108100
      7 C12          1.8480    -2.9760    -0.8980 c6         1 LS7       0.140300
      8 C13          1.0240    -4.2480    -0.8430 c6         1 LS7       0.127900
      9 C3           3.4770     3.2010    -0.3490 c5         1 LS7      -0.046100
     10 C2           4.8960     2.7220     0.0340 c5         1 LS7       0.150800
     11 O10          4.8650     1.2760    -0.1470 os         1 LS7      -0.313900
     12 N11          1.2310    -1.9800    -0.0340 nh         1 LS7      -0.650000
     13 O14          0.9160    -4.7340     0.4760 os         1 LS7      -0.400600
     14 C15          0.3260    -3.7750     1.3250 c6         1 LS7       0.127900
     15 C16          1.1100    -2.4770     1.3330 c6         1 LS7       0.140300
     16 N17         -0.4900     0.0210    -0.2400 ns         1 LS7      -0.469100
     17 C18         -1.6000     0.7750    -0.0560 c          1 LS7       0.727300
     18 O19         -1.5780     1.9780     0.1620 o          1 LS7      -0.579100
     19 C20         -2.8580     0.0270    -0.1370 cc         1 LS7      -0.360800
     20 C21         -3.0960    -1.3300    -0.4160 cc         1 LS7       0.415500
     21 N22         -4.3740    -1.6500    -0.3980 nd         1 LS7      -0.576100
     22 N23         -5.0000    -0.5080    -0.1050 na         1 LS7       0.065200
     23 C24         -4.1360     0.5550     0.0660 cd         1 LS7       0.427500
     24 N25         -4.5880     1.7780     0.3640 nd         1 LS7      -0.607000
     25 C26         -5.8810     1.9230     0.4850 cc         1 LS7       0.444200
     26 C27         -6.8110     0.8730     0.3180 cc         1 LS7      -0.303300
     27 C28         -6.3370    -0.3650     0.0180 cd         1 LS7      -0.003300
     28 C29          5.1880     2.9960     1.5020 c3         1 LS7      -0.096100
     29 H1           0.6310     2.5380    -0.3380 ha         1 LS7       0.171000
     30 H2           3.8470    -1.2460    -0.0150 ha         1 LS7       0.148000
     31 H3           2.8830    -3.2030    -0.6010 h1         1 LS7       0.050700
     32 H4           1.8710    -2.6020    -1.9230 h1         1 LS7       0.050700
     33 H5           0.0270    -4.0540    -1.2660 h1         1 LS7       0.049450
     34 H6           1.4970    -5.0280    -1.4420 h1         1 LS7       0.049450
     35 H7           3.4450     3.5960    -1.3690 hc         1 LS7       0.066200
     36 H8           3.1270     3.9950     0.3130 hc         1 LS7       0.066200
     37 H9           6.0100     4.3660    -0.7730 hc         1 LS7       0.046700
     38 H10          6.9620     2.8950    -0.5900 hc         1 LS7       0.046700
     39 H11          5.7920     3.0370    -1.9120 hc         1 LS7       0.046700
     40 H12         -0.7080    -3.5710     1.0110 h1         1 LS7       0.049450
     41 H13          0.2920    -4.2010     2.3290 h1         1 LS7       0.049450
     42 H14          2.0980    -2.6340     1.7910 h1         1 LS7       0.050700
     43 H15          0.5790    -1.7430     1.9430 h1         1 LS7       0.050700
     44 H16         -0.5830    -0.9810    -0.3540 hn         1 LS7       0.339500
     45 H17         -2.3780    -2.1050    -0.6450 h4         1 LS7       0.051800
     46 H18         -6.2400     2.9170     0.7250 h4         1 LS7       0.037100
     47 H19         -7.8710     1.0430     0.4260 ha         1 LS7       0.164000
     48 H20         -6.9430    -1.2460    -0.1330 h4         1 LS7       0.184000
     49 H21          4.4010     2.5980     2.1460 hc         1 LS7       0.046700
     50 H22          6.1370     2.5510     1.8030 hc         1 LS7       0.046700
     51 H23          5.2490     4.0710     1.6760 hc         1 LS7       0.046700
     52 C1           5.9790     3.2800    -0.8650 c3         1 LS7      -0.096100
@<TRIPOS>BOND
     1     1     2 ar  
     2     1     6 ar  
     3     1     9 1   
     4     2     3 ar  
     5     2    29 1   
     6     3     4 ar  
     7     3    16 1   
     8     4     5 ar  
     9     4    12 1   
    10     5     6 ar  
    11     5    30 1   
    12     6    11 1   
    13     7     8 1   
    14     7    12 1   
    15     7    31 1   
    16     7    32 1   
    17     8    13 1   
    18     8    33 1   
    19     8    34 1   
    20     9    10 1   
    21     9    35 1   
    22     9    36 1   
    23    10    11 1   
    24    10    28 1   
    25    10    52 1   
    26    12    15 1   
    27    13    14 1   
    28    14    15 1   
    29    14    40 1   
    30    14    41 1   
    31    15    42 1   
    32    15    43 1   
    33    16    17 1   
    34    16    44 1   
    35    17    18 2   
    36    17    19 1   
    37    19    20 1   
    38    19    23 2   
    39    20    21 2   
    40    20    45 1   
    41    21    22 1   
    42    22    23 1   
    43    22    27 1   
    44    23    24 1   
    45    24    25 2   
    46    25    26 1   
    47    25    46 1   
    48    26    27 2   
    49    26    47 1   
    50    27    48 1   
    51    28    49 1   
    52    28    50 1   
    53    28    51 1   
    54    37    52 1   
    55    38    52 1   
    56    39    52 1   
@<TRIPOS>SUBSTRUCTURE
     1 LS7         1 TEMP              0 ****  ****    0 ROOT
