@<TRIPOS>MOLECULE
LS7
   52    56     1     0     0
SMALL
No Charge or Current Charge


@<TRIPOS>ATOM
      1 C4           2.7460     1.9820    -0.1720 ca         1 LS7      -0.147300
      2 C5           1.3590     1.7810    -0.1450 ca         1 LS7      -0.076000
      3 C6           0.8640     0.4550    -0.0700 ca         1 LS7      -0.034000
      4 C7           1.7760    -0.6350    -0.0370 ca         1 LS7       0.198000
      5 C8           3.1630    -0.3950    -0.0700 ca         1 LS7      -0.139000
      6 C9           3.6180     0.9250    -0.1300 ca         1 LS7       0.108100
      7 C12          1.7320    -2.9670    -0.9810 c6         1 LS7       0.140300
      8 C13          0.8530    -4.2530    -0.9550 c6         1 LS7       0.151100
      9 C3           3.4870     3.2750    -0.2710 c5         1 LS7      -0.046100
     10 C2           4.9520     2.7400     0.0090 c5         1 LS7       0.174000
     11 O10          4.9360     1.2830    -0.1740 os         1 LS7      -0.337100
     12 N11          1.2920    -1.9630     0.0410 nh         1 LS7      -0.788400
     13 O14          0.7880    -4.8010     0.3820 os         1 LS7      -0.447000
     14 C15          0.2250    -3.8690     1.3350 c6         1 LS7       0.151100
     15 C16          1.0700    -2.5610     1.3960 c6         1 LS7       0.140300
     16 N17         -0.5240     0.1400    -0.0540 ns         1 LS7      -0.143000
     17 C18         -1.6690     0.9160     0.0240 c          1 LS7       0.660300
     18 O19         -1.6520     2.1360     0.1250 o          1 LS7      -0.579100
     19 C20         -2.9020     0.1160    -0.0220 cc         1 LS7      -0.360800
     20 C21         -2.9880    -1.2960    -0.1490 cc         1 LS7       0.415500
     21 N22         -4.2210    -1.7960    -0.1680 nd         1 LS7      -0.576100
     22 N23         -4.9370    -0.6260    -0.0470 na         1 LS7       0.115900
     23 C24         -4.1900     0.5370     0.0420 cd         1 LS7       0.427500
     24 N25         -4.5930     1.8510     0.1700 nd         1 LS7      -0.607000
     25 C26         -5.9270     1.8700     0.2000 cc         1 LS7       0.378900
     26 C27         -6.8020     0.7200     0.1140 cc         1 LS7      -0.220000
     27 C28         -6.3260    -0.5810    -0.0140 cd         1 LS7      -0.036000
     28 C29          5.3970     3.0110     1.4680 c3         1 LS7      -0.096100
     29 H1           0.6990     2.6420    -0.1930 ha         1 LS7       0.153000
     30 H2           3.8720    -1.2160    -0.0380 ha         1 LS7       0.130000
     31 H3           2.7790    -3.2550    -0.8010 h1         1 LS7       0.050700
     32 H4           1.6820    -2.5280    -1.9880 h1         1 LS7       0.050700
     33 H5          -0.1640    -4.0170    -1.3000 h1         1 LS7       0.049450
     34 H6           1.2760    -5.0080    -1.6340 h1         1 LS7       0.049450
     35 H7           3.3880     3.7250    -1.2650 hc         1 LS7       0.066200
     36 H8           3.1560     4.0170     0.4650 hc         1 LS7       0.066200
     37 H9           6.0660     4.4200    -0.8580 hc         1 LS7       0.046700
     38 H10          7.0010     2.9170    -0.7660 hc         1 LS7       0.046700
     39 H11          5.7470     3.1070    -2.0020 hc         1 LS7       0.046700
     40 H12         -0.8080    -3.6350     1.0430 h1         1 LS7       0.049450
     41 H13          0.1980    -4.3420     2.3270 h1         1 LS7       0.049450
     42 H14          2.0380    -2.7870     1.8660 h1         1 LS7       0.050700
     43 H15          0.5520    -1.8410     2.0480 h1         1 LS7       0.050700
     44 H16         -0.6900    -0.8550    -0.1100 hn         1 LS7       0.173000
     45 H17         -2.1640    -1.9930    -0.2330 h4         1 LS7       0.051800
     46 H18         -6.3360     2.8660     0.2990 h4         1 LS7       0.037100
     47 H19         -7.8710     0.9030     0.1530 ha         1 LS7       0.146000
     48 H20         -6.9000    -1.4980    -0.0840 h4         1 LS7       0.166000
     49 H21          4.6870     2.5810     2.1840 hc         1 LS7       0.046700
     50 H22          6.3820     2.5750     1.6720 hc         1 LS7       0.046700
     51 H23          5.4600     4.0870     1.6690 hc         1 LS7       0.046700
     52 C1           6.0040     3.3300    -0.9590 c3         1 LS7      -0.096100
@<TRIPOS>BOND
     1     1     2 ar  
     2     1     6 ar  
     3     1     9 1   
     4     2     3 ar  
     5     2    29 1   
     6     3     4 ar  
     7     3    16 1   
     8     4     5 ar  
     9     4    12 1   
    10     5     6 ar  
    11     5    30 1   
    12     6    11 1   
    13     7     8 1   
    14     7    12 1   
    15     7    31 1   
    16     7    32 1   
    17     8    13 1   
    18     8    33 1   
    19     8    34 1   
    20     9    10 1   
    21     9    35 1   
    22     9    36 1   
    23    10    11 1   
    24    10    28 1   
    25    10    52 1   
    26    12    15 1   
    27    13    14 1   
    28    14    15 1   
    29    14    40 1   
    30    14    41 1   
    31    15    42 1   
    32    15    43 1   
    33    16    17 1   
    34    16    44 1   
    35    17    18 2   
    36    17    19 1   
    37    19    20 1   
    38    19    23 2   
    39    20    21 2   
    40    20    45 1   
    41    21    22 1   
    42    22    23 1   
    43    22    27 1   
    44    23    24 1   
    45    24    25 2   
    46    25    26 1   
    47    25    46 1   
    48    26    27 2   
    49    26    47 1   
    50    27    48 1   
    51    28    49 1   
    52    28    50 1   
    53    28    51 1   
    54    37    52 1   
    55    38    52 1   
    56    39    52 1   
@<TRIPOS>SUBSTRUCTURE
     1 LS7         1 TEMP              0 ****  ****    0 ROOT
