@<TRIPOS>MOLECULE
LS8
   44    46     1     0     0
SMALL
abcg2


@<TRIPOS>ATOM
      1 C15          1.9700    -0.3480    -0.7100 ca         1 LS8      -0.121800
      2 C2          -2.1680     2.0100     0.3130 ca         1 LS8      -0.194000
      3 C3          -3.1840     2.3470    -0.5750 ca         1 LS8       0.081000
      4 C14          2.5560     0.7040    -1.4800 cc         1 LS8      -0.106200
      5 C4          -3.9800     1.3790    -1.1780 ca         1 LS8      -0.140000
      6 C5          -3.7380     0.0490    -0.8850 ca         1 LS8       0.012000
      7 C12          4.4830     0.7360     0.0070 c          1 LS8       0.558200
      8 C6          -2.7260    -0.3070    -0.0060 ca         1 LS8      -0.332500
      9 C1          -1.9300     0.6710     0.6150 ca         1 LS8       0.242100
     10 C18         -3.4140     3.7260    -0.8710 cg         1 LS8       0.309000
     11 C10          2.6680    -0.8280     0.4110 ca         1 LS8       0.093600
     12 C13          3.7480     1.2370    -1.1550 cd         1 LS8      -0.169400
     13 N2          -3.6030     4.8350    -1.1150 n1         1 LS8      -0.428000
     14 O           -0.9890     0.2610     1.4550 os         1 LS8      -0.325100
     15 C           -0.0380     1.1900     1.9490 c3         1 LS8       0.149900
     16 S           -2.4450    -2.0460     0.2710 sy         1 LS8       1.157600
     17 O1          -2.1580    -2.2780     1.6690 o          1 LS8      -0.523500
     18 O2          -3.5340    -2.7590    -0.3710 o          1 LS8      -0.523500
     19 C7           0.1690    -1.8910    -0.2730 ca         1 LS8       0.219000
     20 C16          0.7220    -0.8850    -1.0350 ca         1 LS8      -0.084000
     21 C9           2.0950    -1.8540     1.1740 ca         1 LS8      -0.158000
     22 C8           0.8690    -2.3800     0.8300 ca         1 LS8      -0.030000
     23 C17          4.3880     2.3420    -1.9280 c3         1 LS8      -0.039900
     24 O3           5.5720     1.1980     0.3250 o          1 LS8      -0.545000
     25 N1           3.8960    -0.2840     0.7300 n          1 LS8      -0.278000
     26 H1          -1.5780     2.7960     0.7630 ha         1 LS8       0.134000
     27 H2           2.0110     1.0740    -2.3410 ha         1 LS8       0.189000
     28 H3          -4.7700     1.6540    -1.8620 ha         1 LS8       0.136000
     29 H4          -4.3460    -0.7120    -1.3530 ha         1 LS8       0.150000
     30 H5           5.5620    -0.3070     1.9800 h1         1 LS8       0.057700
     31 H6           4.0360    -0.6400     2.7990 h1         1 LS8       0.057700
     32 H7           4.7850    -1.8770     1.7720 h1         1 LS8       0.057700
     33 H8          -0.5020     1.9340     2.6000 h1         1 LS8       0.053367
     34 H9           0.6730     0.6080     2.5270 h1         1 LS8       0.053367
     35 H10          0.4910     1.6930     1.1380 h1         1 LS8       0.053367
     36 H11         -1.2990    -2.4510    -1.6030 hn         1 LS8       0.488000
     37 H12          0.1910    -0.4940    -1.8950 ha         1 LS8       0.118000
     38 H13          2.6010    -2.2590     2.0370 ha         1 LS8       0.130000
     39 H14          0.4520    -3.1840     1.4210 ha         1 LS8       0.147000
     40 H15          4.5450     3.2240    -1.3060 hc         1 LS8       0.051700
     41 H16          5.3660     2.0470    -2.3110 hc         1 LS8       0.051700
     42 H17          3.7680     2.6330    -2.7740 hc         1 LS8       0.051700
     43 C11          4.6070    -0.8090     1.8870 c3         1 LS8       0.067300
     44 N           -1.0930    -2.4430    -0.6080 nu         1 LS8      -0.869100
@<TRIPOS>BOND
     1     1     4 1   
     2     1    11 ar  
     3     1    20 ar  
     4     2     3 ar  
     5     2     9 ar  
     6     2    26 1   
     7     3     5 ar  
     8     3    10 1   
     9     4    12 2   
    10     4    27 1   
    11     5     6 ar  
    12     5    28 1   
    13     6     8 ar  
    14     6    29 1   
    15     7    12 1   
    16     7    24 2   
    17     7    25 1   
    18     8     9 ar  
    19     8    16 1   
    20     9    14 1   
    21    10    13 3   
    22    11    21 ar  
    23    11    25 1   
    24    12    23 1   
    25    14    15 1   
    26    15    33 1   
    27    15    34 1   
    28    15    35 1   
    29    16    17 2   
    30    16    18 2   
    31    16    44 1   
    32    19    20 ar  
    33    19    22 ar  
    34    19    44 1   
    35    20    37 1   
    36    21    22 ar  
    37    21    38 1   
    38    22    39 1   
    39    23    40 1   
    40    23    41 1   
    41    23    42 1   
    42    25    43 1   
    43    30    43 1   
    44    31    43 1   
    45    32    43 1   
    46    36    44 1   
@<TRIPOS>SUBSTRUCTURE
     1 LS8         1 TEMP              0 ****  ****    0 ROOT
