@<TRIPOS>MOLECULE
LS8
   44    46     1     0     0
SMALL
No Charge or Current Charge


@<TRIPOS>ATOM
      1 C15          2.0240    -0.4340    -0.8380 ca         1 LS8      -0.121800
      2 C2          -2.1900     1.9450     0.5410 ca         1 LS8      -0.194000
      3 C3          -3.0820     2.4240    -0.4360 ca         1 LS8       0.081000
      4 C14          2.6050     0.5420    -1.7490 cc         1 LS8      -0.106200
      5 C4          -3.8020     1.5120    -1.2250 ca         1 LS8      -0.140000
      6 C5          -3.6340     0.1320    -1.0400 ca         1 LS8       0.012000
      7 C12          4.4870     0.8720    -0.0960 c          1 LS8       0.558200
      8 C6          -2.7450    -0.3530    -0.0570 ca         1 LS8      -0.332500
      9 C1          -2.0150     0.5570     0.7370 ca         1 LS8       0.242100
     10 C18         -3.2560     3.8410    -0.6300 cg         1 LS8       0.309000
     11 C10          2.6610    -0.7730     0.3730 ca         1 LS8       0.093600
     12 C13          3.7750     1.1770    -1.3770 cd         1 LS8      -0.169400
     13 N2          -3.3890     4.9920    -0.7800 n1         1 LS8      -0.428000
     14 O           -1.1330     0.0780     1.6830 os         1 LS8      -0.325100
     15 C           -0.2070     0.9230     2.3880 c3         1 LS8       0.149900
     16 S           -2.5380    -2.1320     0.1150 sy         1 LS8       1.157600
     17 O1          -2.3170    -2.5090     1.5140 o          1 LS8      -0.523500
     18 O2          -3.5130    -2.8260    -0.7290 o          1 LS8      -0.523500
     19 C7           0.1600    -1.9280    -0.3080 ca         1 LS8       0.219000
     20 C16          0.7920    -1.0260    -1.1790 ca         1 LS8      -0.084000
     21 C9           2.0160    -1.6730     1.2530 ca         1 LS8      -0.158000
     22 C8           0.7820    -2.2510     0.9080 ca         1 LS8      -0.030000
     23 C17          4.4290     2.2270    -2.2510 c3         1 LS8      -0.039900
     24 O3           5.5250     1.4440     0.2220 o          1 LS8      -0.545000
     25 N1           3.8970    -0.1230     0.7230 n          1 LS8      -0.278000
     26 H1          -1.6430     2.6660     1.1390 ha         1 LS8       0.134000
     27 H2           2.1250     0.7910    -2.6920 ha         1 LS8       0.189000
     28 H3          -4.4920     1.8710    -1.9850 ha         1 LS8       0.136000
     29 H4          -4.2010    -0.5530    -1.6700 ha         1 LS8       0.150000
     30 H5           5.6230    -0.1230     2.0150 h1         1 LS8       0.057700
     31 H6           4.0480    -0.2310     2.8380 h1         1 LS8       0.057700
     32 H7           4.7150    -1.6420     1.9630 h1         1 LS8       0.057700
     33 H8          -0.7380     1.6590     3.0050 h1         1 LS8       0.053367
     34 H9           0.4250     0.3210     3.0520 h1         1 LS8       0.053367
     35 H10          0.4490     1.4530     1.6860 h1         1 LS8       0.053367
     36 H11         -1.3220    -2.3890    -1.6270 hn         1 LS8       0.488000
     37 H12          0.3070    -0.7590    -2.1140 ha         1 LS8       0.118000
     38 H13          2.4510    -1.9370     2.2120 ha         1 LS8       0.130000
     39 H14          0.3040    -2.9460     1.5920 ha         1 LS8       0.147000
     40 H15          4.5050     3.1870    -1.7260 hc         1 LS8       0.051700
     41 H16          5.4410     1.9240    -2.5450 hc         1 LS8       0.051700
     42 H17          3.8600     2.4020    -3.1720 hc         1 LS8       0.051700
     43 C11          4.6150    -0.5500     1.9550 c3         1 LS8       0.067300
     44 N           -1.0770    -2.4690    -0.6490 nu         1 LS8      -0.869100
@<TRIPOS>BOND
     1     1     4 1   
     2     1    11 ar  
     3     1    20 ar  
     4     2     3 ar  
     5     2     9 ar  
     6     2    26 1   
     7     3     5 ar  
     8     3    10 1   
     9     4    12 2   
    10     4    27 1   
    11     5     6 ar  
    12     5    28 1   
    13     6     8 ar  
    14     6    29 1   
    15     7    12 1   
    16     7    24 2   
    17     7    25 1   
    18     8     9 ar  
    19     8    16 1   
    20     9    14 1   
    21    10    13 3   
    22    11    21 ar  
    23    11    25 1   
    24    12    23 1   
    25    14    15 1   
    26    15    33 1   
    27    15    34 1   
    28    15    35 1   
    29    16    17 2   
    30    16    18 2   
    31    16    44 1   
    32    19    20 ar  
    33    19    22 ar  
    34    19    44 1   
    35    20    37 1   
    36    21    22 ar  
    37    21    38 1   
    38    22    39 1   
    39    23    40 1   
    40    23    41 1   
    41    23    42 1   
    42    25    43 1   
    43    30    43 1   
    44    31    43 1   
    45    32    43 1   
    46    36    44 1   
@<TRIPOS>SUBSTRUCTURE
     1 LS8         1 TEMP              0 ****  ****    0 ROOT
