@<TRIPOS>MOLECULE
LSA
   17    18     1     0     0
SMALL
No Charge or Current Charge


@<TRIPOS>ATOM
      1 C4           2.6870    -1.3660     0.0020 ca         1 LSA      -0.102000
      2 C5           1.3140    -1.6870     0.0200 ca         1 LSA       0.004000
      3 C6           0.3970    -0.6260     0.0060 ca         1 LSA      -0.255500
      4 C7          -0.3670     1.6810    -0.0330 c          1 LSA       0.598600
      5 C3           3.1100    -0.0160    -0.0270 ca         1 LSA      -0.070000
      6 S10         -1.3740    -0.6840     0.0220 sy         1 LSA       1.181300
      7 N9          -1.5300     0.9720    -0.0090 ns         1 LSA      -0.586300
      8 O8          -0.2990     2.8980    -0.0570 o          1 LSA      -0.479000
      9 C1           0.8010     0.7150    -0.0230 ca         1 LSA      -0.099600
     10 C2           2.1680     1.0360    -0.0400 ca         1 LSA      -0.049000
     11 O12         -1.8650    -1.1580     1.3200 o          1 LSA      -0.514500
     12 O11         -1.8860    -1.2080    -1.2490 o          1 LSA      -0.514500
     13 H4           3.4260    -2.1640     0.0120 ha         1 LSA       0.124000
     14 H5           0.9810    -2.7240     0.0430 ha         1 LSA       0.135000
     15 H3           4.1730     0.2150    -0.0410 ha         1 LSA       0.126000
     16 HN9         -2.4530     1.3680    -0.0100 hn         1 LSA       0.358500
     17 H2           2.4960     2.0730    -0.0630 ha         1 LSA       0.142000
@<TRIPOS>BOND
     1     1     2 ar  
     2     1     5 ar  
     3     1    13 1   
     4     2     3 ar  
     5     2    14 1   
     6     3     6 1   
     7     3     9 ar  
     8     4     7 1   
     9     4     8 2   
    10     4     9 1   
    11     5    10 ar  
    12     5    15 1   
    13     6     7 1   
    14     6    11 2   
    15     6    12 2   
    16     7    16 1   
    17     9    10 ar  
    18    10    17 1   
@<TRIPOS>SUBSTRUCTURE
     1 LSA         1 TEMP              0 ****  ****    0 ROOT
