@<TRIPOS>MOLECULE
LSA
   17    18     1     0     0
SMALL
bcc


@<TRIPOS>ATOM
      1 C4           2.6450    -1.3350    -0.0000 ca         1 LSA      -0.120000
      2 C5           1.2920    -1.6550     0.0180 ca         1 LSA      -0.014000
      3 C6           0.4050    -0.6000     0.0090 ca         1 LSA      -0.255500
      4 C7          -0.3240     1.6800    -0.0320 c          1 LSA       0.741100
      5 C3           3.0710    -0.0110    -0.0260 ca         1 LSA      -0.088000
      6 S10         -1.3540    -0.7090     0.0260 sy         1 LSA       1.322900
      7 N9          -1.4970     0.9650    -0.0050 ns         1 LSA      -0.653300
      8 O8          -0.2470     2.8820    -0.0600 o          1 LSA      -0.554500
      9 C1           0.8090     0.7230    -0.0200 ca         1 LSA      -0.099600
     10 C2           2.1550     1.0350    -0.0370 ca         1 LSA      -0.067000
     11 O12         -1.8460    -1.2300     1.2840 o          1 LSA      -0.585300
     12 O11         -1.8720    -1.2800    -1.2000 o          1 LSA      -0.585300
     13 H4           3.3770    -2.1310     0.0060 ha         1 LSA       0.142000
     14 H5           0.9600    -2.6840     0.0380 ha         1 LSA       0.153000
     15 H3           4.1300     0.2060    -0.0400 ha         1 LSA       0.144000
     16 HN9         -2.4110     1.4050    -0.0290 hn         1 LSA       0.358500
     17 H2           2.4860     2.0650    -0.0590 ha         1 LSA       0.160000
@<TRIPOS>BOND
     1     1     2 ar  
     2     1     5 ar  
     3     1    13 1   
     4     2     3 ar  
     5     2    14 1   
     6     3     6 1   
     7     3     9 ar  
     8     4     7 1   
     9     4     8 2   
    10     4     9 1   
    11     5    10 ar  
    12     5    15 1   
    13     6     7 1   
    14     6    11 2   
    15     6    12 2   
    16     7    16 1   
    17     9    10 ar  
    18    10    17 1   
@<TRIPOS>SUBSTRUCTURE
     1 LSA         1 TEMP              0 ****  ****    0 ROOT
