@<TRIPOS>MOLECULE
LSB
   79    82     1     0     0
SMALL
bcc


@<TRIPOS>ATOM
      1 C1          -6.6490     1.0450    -0.5780 ca         1 LSB      -0.095300
      2 C2          -7.3380     1.9900     0.1770 ca         1 LSB      -0.106500
      3 C3          -8.6910     2.2120    -0.0350 ca         1 LSB      -0.129500
      4 C4          -9.3650     1.4980    -1.0170 ca         1 LSB      -0.117000
      5 C5          -8.6800     0.5620    -1.7790 ca         1 LSB      -0.129500
      6 C6          -7.3280     0.3320    -1.5610 ca         1 LSB      -0.106500
      7 C7          -5.8970    -1.3770     0.9060 c3         1 LSB      -0.105100
      8 C8          -4.9030    -0.2330     0.8160 c5         1 LSB       0.084700
      9 C9          -5.2040     0.8120    -0.2690 c5         1 LSB       0.181400
     10 O10         -4.5060     0.3010    -1.4110 os         1 LSB      -0.385900
     11 C11         -3.4900    -0.4700    -1.0230 c          1 LSB       0.853600
     12 N12         -3.5890    -0.6780     0.3410 n          1 LSB      -0.560400
     13 C13         -2.6880    -1.2990     1.2000 c          1 LSB       0.712100
     14 C14         -1.2800    -1.5770     0.7170 c3         1 LSB      -0.165700
     15 C15         -0.5500    -0.2110     0.6540 c3         1 LSB       0.152100
     16 C16          0.9130    -0.2920     0.1900 c3         1 LSB      -0.082700
     17 C17          1.4600     1.1360     0.0430 c3         1 LSB      -0.066400
     18 C18          2.8810     1.2210    -0.4960 cx         1 LSB       0.084800
     19 C19          3.9420     0.5390     0.2530 cx         1 LSB       0.069100
     20 C20          5.2140    -0.0120    -0.3270 c3         1 LSB      -0.064400
     21 C21          6.3380     0.0310     0.7040 c3         1 LSB      -0.062400
     22 C22          7.6820    -0.5200     0.2550 cx         1 LSB       0.081800
     23 C23          8.1750    -0.2270    -1.0940 cx         1 LSB       0.072100
     24 C24          9.6170    -0.1410    -1.4960 c3         1 LSB      -0.085100
     25 O25         -2.6750    -0.8870    -1.7980 o          1 LSB      -0.592500
     26 O26         -3.0490    -1.5260     2.3320 o          1 LSB      -0.554100
     27 C27         -0.5900    -2.6080     1.6100 c3         1 LSB      -0.067400
     28 C28         -1.1880    -4.0030     1.4800 c3         1 LSB      -0.093100
     29 O29         -0.6800     0.4780     1.8790 oh         1 LSB      -0.593800
     30 C30          1.0520    -1.1000    -1.0960 c3         1 LSB      -0.093100
     31 C31          2.9950     1.5340    -1.9740 c3         1 LSB      -0.059400
     32 C32          2.6560     2.9890    -2.2840 c3         1 LSB      -0.087100
     33 O33          3.7960     1.9490     0.3300 op         1 LSB      -0.396600
     34 C34          8.6230    -0.8070     1.4080 c3         1 LSB      -0.060400
     35 C35          8.2630    -2.0850     2.1590 c3         1 LSB      -0.087100
     36 O36          7.6470    -1.5100    -0.7690 op         1 LSB      -0.396600
     37 H2          -6.8140     2.5600     0.9350 ha         1 LSB       0.138000
     38 H3          -9.2150     2.9490     0.5580 ha         1 LSB       0.135000
     39 H4         -10.4190     1.6750    -1.1910 ha         1 LSB       0.134000
     40 H5          -9.1990     0.0070    -2.5500 ha         1 LSB       0.135000
     41 H6          -6.8120    -0.4020    -2.1660 ha         1 LSB       0.138000
     42 H7          -6.0380    -1.8720    -0.0550 hc         1 LSB       0.053700
     43 H7A         -5.5560    -2.1190     1.6250 hc         1 LSB       0.053700
     44 H7B         -6.8660    -1.0080     1.2410 hc         1 LSB       0.053700
     45 H9          -4.7330     1.7600     0.0110 h1         1 LSB       0.074700
     46 H14         -1.3230    -1.9760    -0.2960 hc         1 LSB       0.102700
     47 H15         -1.0710     0.4140    -0.0790 h1         1 LSB       0.079700
     48 H16          1.5010    -0.7960     0.9660 hc         1 LSB       0.043700
     49 H17          0.7910     1.7030    -0.6140 hc         1 LSB       0.063700
     50 H17A         1.4300     1.6330     1.0130 hc         1 LSB       0.063700
     51 H19          3.6320     0.0200     1.1640 h1         1 LSB       0.074700
     52 H20          5.0260    -1.0450    -0.6310 hc         1 LSB       0.059200
     53 H20A         5.4920     0.5400    -1.2250 hc         1 LSB       0.059200
     54 H21          6.5020     1.0620     1.0300 hc         1 LSB       0.054700
     55 H21A         6.0130    -0.5170     1.5940 hc         1 LSB       0.054700
     56 H23          7.5220     0.3660    -1.7350 h1         1 LSB       0.077700
     57 H24         10.2660    -0.7750    -0.8950 hc         1 LSB       0.046700
     58 H24A         9.7360    -0.4370    -2.5400 hc         1 LSB       0.046700
     59 H24B         9.9660     0.8880    -1.4070 hc         1 LSB       0.046700
     60 H27          0.4600    -2.6650     1.3170 hc         1 LSB       0.049200
     61 H27A        -0.5980    -2.2940     2.6560 hc         1 LSB       0.049200
     62 H28         -2.2310    -4.0400     1.7940 hc         1 LSB       0.038033
     63 H28A        -1.1390    -4.3510     0.4470 hc         1 LSB       0.038033
     64 H28B        -0.6380    -4.7180     2.0930 hc         1 LSB       0.038033
     65 HO29        -0.1670     0.0180     2.5520 ho         1 LSB       0.407000
     66 H30          2.0890    -1.1240    -1.4330 hc         1 LSB       0.042367
     67 H30A         0.7470    -2.1380    -0.9580 hc         1 LSB       0.042367
     68 H30B         0.4460    -0.6800    -1.9020 hc         1 LSB       0.042367
     69 H31          3.9960     1.3140    -2.3480 hc         1 LSB       0.049700
     70 H31A         2.3160     0.8790    -2.5230 hc         1 LSB       0.049700
     71 H32          2.7140     3.1730    -3.3570 hc         1 LSB       0.037367
     72 H32A         1.6470     3.2510    -1.9630 hc         1 LSB       0.037367
     73 H32B         3.3510     3.6710    -1.7940 hc         1 LSB       0.037367
     74 H34          9.6550    -0.8790     1.0630 hc         1 LSB       0.049200
     75 H34A         8.5900     0.0460     2.0910 hc         1 LSB       0.049200
     76 H35          8.9510    -2.2490     2.9870 hc         1 LSB       0.037033
     77 H35A         7.2550    -2.0480     2.5760 hc         1 LSB       0.037033
     78 H35B         8.3200    -2.9550     1.5040 hc         1 LSB       0.037033
     79 H8          -4.8020     0.2600     1.7820 h1         1 LSB       0.094700
@<TRIPOS>BOND
     1     1     2 ar  
     2     1     6 ar  
     3     1     9 1   
     4     2     3 ar  
     5     2    37 1   
     6     3     4 ar  
     7     3    38 1   
     8     4     5 ar  
     9     4    39 1   
    10     5     6 ar  
    11     5    40 1   
    12     6    41 1   
    13     7     8 1   
    14     7    42 1   
    15     7    43 1   
    16     7    44 1   
    17     8     9 1   
    18     8    12 1   
    19     8    79 1   
    20     9    10 1   
    21     9    45 1   
    22    10    11 1   
    23    11    12 1   
    24    11    25 2   
    25    12    13 1   
    26    13    14 1   
    27    13    26 2   
    28    14    15 1   
    29    14    27 1   
    30    14    46 1   
    31    15    16 1   
    32    15    29 1   
    33    15    47 1   
    34    16    17 1   
    35    16    30 1   
    36    16    48 1   
    37    17    18 1   
    38    17    49 1   
    39    17    50 1   
    40    18    19 1   
    41    18    31 1   
    42    18    33 1   
    43    19    20 1   
    44    19    33 1   
    45    19    51 1   
    46    20    21 1   
    47    20    52 1   
    48    20    53 1   
    49    21    22 1   
    50    21    54 1   
    51    21    55 1   
    52    22    23 1   
    53    22    34 1   
    54    22    36 1   
    55    23    24 1   
    56    23    36 1   
    57    23    56 1   
    58    24    57 1   
    59    24    58 1   
    60    24    59 1   
    61    27    28 1   
    62    27    60 1   
    63    27    61 1   
    64    28    62 1   
    65    28    63 1   
    66    28    64 1   
    67    29    65 1   
    68    30    66 1   
    69    30    67 1   
    70    30    68 1   
    71    31    32 1   
    72    31    69 1   
    73    31    70 1   
    74    32    71 1   
    75    32    72 1   
    76    32    73 1   
    77    34    35 1   
    78    34    74 1   
    79    34    75 1   
    80    35    76 1   
    81    35    77 1   
    82    35    78 1   
@<TRIPOS>SUBSTRUCTURE
     1 LSB         1 TEMP              0 ****  ****    0 ROOT
