@<TRIPOS>MOLECULE
LSB
   79    82     1     0     0
SMALL
No Charge or Current Charge


@<TRIPOS>ATOM
      1 C1          -7.0530     0.3930    -0.7250 ca         1 LSB      -0.095300
      2 C2          -8.0820     1.0520    -0.0210 ca         1 LSB      -0.088500
      3 C3          -9.4310     0.7330    -0.2570 ca         1 LSB      -0.111500
      4 C4          -9.7670    -0.2490    -1.2020 ca         1 LSB      -0.099000
      5 C5          -8.7520    -0.9110    -1.9120 ca         1 LSB      -0.111500
      6 C6          -7.4030    -0.5920    -1.6760 ca         1 LSB      -0.088500
      7 C7          -5.6920    -1.3790     1.1020 c3         1 LSB      -0.105100
      8 C8          -5.0650     0.0150     0.8330 c5         1 LSB       0.084700
      9 C9          -5.5910     0.7580    -0.4400 c5         1 LSB       0.204600
     10 O10         -4.7020     0.3540    -1.4970 os         1 LSB      -0.409100
     11 C11         -3.4930     0.0520    -0.9520 c          1 LSB       0.711100
     12 N12         -3.6500    -0.1240     0.4220 n          1 LSB      -0.426400
     13 C13         -2.6640    -0.3360     1.4120 c          1 LSB       0.645100
     14 C14         -1.2060    -0.7120     1.0360 c3         1 LSB      -0.165700
     15 C15         -0.3710     0.5890     0.8070 c3         1 LSB       0.175300
     16 C16          1.0870     0.4010     0.2540 c3         1 LSB      -0.082700
     17 C17          1.7820     1.7870     0.0260 c3         1 LSB      -0.066400
     18 C18          3.2230     1.7420    -0.5150 cx         1 LSB       0.108000
     19 C19          4.2440     0.9250     0.2460 cx         1 LSB       0.092300
     20 C20          5.4590     0.2830    -0.4200 c3         1 LSB      -0.064400
     21 C21          6.4030    -0.4070     0.6000 c3         1 LSB      -0.062400
     22 C22          7.6340    -1.1230     0.0070 cx         1 LSB       0.105000
     23 C23          8.5030    -0.3540    -0.9650 cx         1 LSB       0.095300
     24 C24         10.0000    -0.5980    -1.1200 c3         1 LSB      -0.085100
     25 O25         -2.4650    -0.0370    -1.5990 o          1 LSB      -0.517000
     26 O26         -2.9700    -0.2070     2.5920 o          1 LSB      -0.554100
     27 C27         -0.5640    -1.7240     2.0390 c3         1 LSB      -0.067400
     28 C28         -1.3220    -3.0660     2.1300 c3         1 LSB      -0.093100
     29 O29         -0.3160     1.3210     2.0360 oh         1 LSB      -0.656000
     30 C30          1.1350    -0.4790    -1.0260 c3         1 LSB      -0.093100
     31 C31          3.3540     2.0140    -2.0280 c3         1 LSB      -0.059400
     32 C32          3.0450     3.4720    -2.4400 c3         1 LSB      -0.087100
     33 O33          4.2310     2.3670     0.3170 op         1 LSB      -0.443000
     34 C34          8.2750    -2.1680     0.9400 c3         1 LSB      -0.060400
     35 C35          7.3600    -3.3500     1.3340 c3         1 LSB      -0.087100
     36 O36          7.6300    -1.4210    -1.4090 op         1 LSB      -0.443000
     37 H2          -7.8360     1.8140     0.7160 ha         1 LSB       0.120000
     38 H3         -10.2150     1.2480     0.2940 ha         1 LSB       0.117000
     39 H4         -10.8100    -0.4960    -1.3850 ha         1 LSB       0.116000
     40 H5          -9.0100    -1.6720    -2.6450 ha         1 LSB       0.117000
     41 H6          -6.6320    -1.1190    -2.2330 ha         1 LSB       0.120000
     42 H7          -5.6190    -2.0300     0.2230 hc         1 LSB       0.053700
     43 H7A         -5.1820    -1.8840     1.9310 hc         1 LSB       0.053700
     44 H7B         -6.7500    -1.2960     1.3780 hc         1 LSB       0.053700
     45 H9          -5.4830     1.8440    -0.3100 h1         1 LSB       0.074700
     46 H14         -1.2580    -1.2130     0.0700 hc         1 LSB       0.102700
     47 H15         -0.9110     1.1930     0.0630 h1         1 LSB       0.079700
     48 H16          1.6660    -0.1250     1.0210 hc         1 LSB       0.043700
     49 H17          1.1460     2.3810    -0.6390 hc         1 LSB       0.063700
     50 H17A         1.7980     2.3360     0.9740 hc         1 LSB       0.063700
     51 H19          3.9080     0.4170     1.1500 h1         1 LSB       0.074700
     52 H20          5.1130    -0.4630    -1.1460 hc         1 LSB       0.059200
     53 H20A         6.0180     1.0410    -0.9780 hc         1 LSB       0.059200
     54 H21          6.7490     0.3460     1.3190 hc         1 LSB       0.054700
     55 H21A         5.7970    -1.1120     1.1770 hc         1 LSB       0.054700
     56 H23          8.1920     0.6540    -1.2400 h1         1 LSB       0.077700
     57 H24         10.2190    -1.6420    -1.3740 hc         1 LSB       0.046700
     58 H24A        10.4080     0.0300    -1.9200 hc         1 LSB       0.046700
     59 H24B        10.5330    -0.3470    -0.1950 hc         1 LSB       0.046700
     60 H27          0.4650    -1.9460     1.7340 hc         1 LSB       0.049200
     61 H27A        -0.5060    -1.2810     3.0410 hc         1 LSB       0.049200
     62 H28         -2.3410    -2.9250     2.5090 hc         1 LSB       0.038033
     63 H28A        -1.3830    -3.5450     1.1450 hc         1 LSB       0.038033
     64 H28B        -0.8010    -3.7510     2.8090 hc         1 LSB       0.038033
     65 HO29         0.1700     0.7640     2.6810 ho         1 LSB       0.446000
     66 H30          2.1640    -0.6190    -1.3750 hc         1 LSB       0.042367
     67 H30A         0.7420    -1.4850    -0.8380 hc         1 LSB       0.042367
     68 H30B         0.5530    -0.0250    -1.8370 hc         1 LSB       0.042367
     69 H31          4.3660     1.7860    -2.3770 hc         1 LSB       0.049700
     70 H31A         2.6920     1.3460    -2.5890 hc         1 LSB       0.049700
     71 H32          3.2230     3.6060    -3.5140 hc         1 LSB       0.037367
     72 H32A         2.0020     3.7370    -2.2390 hc         1 LSB       0.037367
     73 H32B         3.6920     4.1720    -1.8990 hc         1 LSB       0.037367
     74 H34          9.1620    -2.6040     0.4670 hc         1 LSB       0.049200
     75 H34A         8.6320    -1.6750     1.8520 hc         1 LSB       0.049200
     76 H35          7.9410    -4.1190     1.8570 hc         1 LSB       0.037033
     77 H35A         6.5550    -3.0330     2.0060 hc         1 LSB       0.037033
     78 H35B         6.9140    -3.8090     0.4430 hc         1 LSB       0.037033
     79 H8          -5.1860     0.6470     1.7240 h1         1 LSB       0.094700
@<TRIPOS>BOND
     1     1     2 ar  
     2     1     6 ar  
     3     1     9 1   
     4     2     3 ar  
     5     2    37 1   
     6     3     4 ar  
     7     3    38 1   
     8     4     5 ar  
     9     4    39 1   
    10     5     6 ar  
    11     5    40 1   
    12     6    41 1   
    13     7     8 1   
    14     7    42 1   
    15     7    43 1   
    16     7    44 1   
    17     8     9 1   
    18     8    12 1   
    19     8    79 1   
    20     9    10 1   
    21     9    45 1   
    22    10    11 1   
    23    11    12 1   
    24    11    25 2   
    25    12    13 1   
    26    13    14 1   
    27    13    26 2   
    28    14    15 1   
    29    14    27 1   
    30    14    46 1   
    31    15    16 1   
    32    15    29 1   
    33    15    47 1   
    34    16    17 1   
    35    16    30 1   
    36    16    48 1   
    37    17    18 1   
    38    17    49 1   
    39    17    50 1   
    40    18    19 1   
    41    18    31 1   
    42    18    33 1   
    43    19    20 1   
    44    19    33 1   
    45    19    51 1   
    46    20    21 1   
    47    20    52 1   
    48    20    53 1   
    49    21    22 1   
    50    21    54 1   
    51    21    55 1   
    52    22    23 1   
    53    22    34 1   
    54    22    36 1   
    55    23    24 1   
    56    23    36 1   
    57    23    56 1   
    58    24    57 1   
    59    24    58 1   
    60    24    59 1   
    61    27    28 1   
    62    27    60 1   
    63    27    61 1   
    64    28    62 1   
    65    28    63 1   
    66    28    64 1   
    67    29    65 1   
    68    30    66 1   
    69    30    67 1   
    70    30    68 1   
    71    31    32 1   
    72    31    69 1   
    73    31    70 1   
    74    32    71 1   
    75    32    72 1   
    76    32    73 1   
    77    34    35 1   
    78    34    74 1   
    79    34    75 1   
    80    35    76 1   
    81    35    77 1   
    82    35    78 1   
@<TRIPOS>SUBSTRUCTURE
     1 LSB         1 TEMP              0 ****  ****    0 ROOT
