@<TRIPOS>MOLECULE
LSC
   87    86     1     0     0
SMALL
No Charge or Current Charge


@<TRIPOS>ATOM
      1 C1          12.2220     5.8070     2.6340 c3         1 LSC      -0.088100
      2 C2          12.3940     4.3400     2.1960 c3         1 LSC      -0.074400
      3 C3          11.0590     3.5670     2.1420 c3         1 LSC      -0.075400
      4 C4          11.2260     2.0980     1.6960 c3         1 LSC      -0.074400
      5 C5           9.8880     1.3270     1.6490 c3         1 LSC      -0.074400
      6 C6          10.0510    -0.1390     1.1930 c3         1 LSC      -0.075400
      7 C7           8.7130    -0.9110     1.1570 c3         1 LSC      -0.071400
      8 C8           8.8700    -2.3750     0.6970 c3         1 LSC      -0.040200
      9 C9           7.5470    -3.1120     0.6890 c2         1 LSC      -0.218200
     10 C10          6.9310    -3.5890    -0.4040 c2         1 LSC      -0.218200
     11 C11          5.6000    -4.3120    -0.4070 c3         1 LSC      -0.041200
     12 C12          4.5110    -3.5170    -1.1560 c3         1 LSC      -0.071400
     13 C13          3.1210    -4.1900    -1.1050 c3         1 LSC      -0.076400
     14 C14          2.0320    -3.3900    -1.8540 c3         1 LSC      -0.073400
     15 C15          0.6300    -4.0300    -1.7470 c3         1 LSC      -0.077400
     16 C16         -0.4560    -3.2400    -2.5120 c3         1 LSC      -0.067400
     17 C17         -1.8710    -3.8460    -2.3570 c3         1 LSC      -0.138400
     18 C18         -2.9110    -3.0300    -3.1310 c          1 LSC       0.592100
     19 O19         -3.4860    -2.0610    -2.3500 os         1 LSC      -0.443100
     20 C20         -4.4690    -1.1960    -2.9590 c3         1 LSC       0.127600
     21 C21         -4.8870    -0.1020    -1.9410 c3         1 LSC       0.153300
     22 C22         -6.0360     0.7900    -2.4840 c3         1 LSC       0.191600
     23 O23         -6.0370     2.0230    -1.7360 os         1 LSC      -0.595400
     24 P24         -7.4190     2.6090    -1.1500 p5         1 LSC       1.386800
     25 O25         -7.2450     3.9960    -0.6330 o          1 LSC      -0.808500
     26 C30         -7.0030     1.7280     1.3370 c3         1 LSC       0.218600
     27 C31         -5.4620     1.7030     1.1750 c3         1 LSC       0.084600
     28 N32         -4.5800     1.8310     2.4300 n4         1 LSC      -0.488000
     29 O32         -3.1760    -3.2180    -4.3110 o          1 LSC      -0.488000
     30 C33         -4.8000     3.1980     3.0960 c3         1 LSC       0.074233
     31 O33         -3.7700     0.7490    -1.6130 oh         1 LSC      -0.656000
     32 C34         -4.8990     0.7090     3.4320 c3         1 LSC       0.074233
     33 O34         -8.5120     2.5240    -2.1610 o          1 LSC      -0.808500
     34 C35         -3.1110     1.7130     2.0030 c3         1 LSC       0.074233
     35 O35         -7.6450     1.5650     0.0580 os         1 LSC      -0.580400
     36 H1          11.7760     5.8640     3.6340 hc         1 LSC       0.031367
     37 H1A         13.1940     6.3140     2.6630 hc         1 LSC       0.031367
     38 H1B         11.5740     6.3480     1.9340 hc         1 LSC       0.031367
     39 H2          12.8700     4.3170     1.2080 hc         1 LSC       0.036700
     40 H2A         13.0770     3.8380     2.8930 hc         1 LSC       0.036700
     41 H3          10.5890     3.5900     3.1330 hc         1 LSC       0.037200
     42 H3A         10.3750     4.0770     1.4520 hc         1 LSC       0.037200
     43 H4          11.6900     2.0740     0.7020 hc         1 LSC       0.036700
     44 H4A         11.9120     1.5880     2.3830 hc         1 LSC       0.036700
     45 H5           9.4270     1.3460     2.6450 hc         1 LSC       0.037700
     46 H5A          9.1990     1.8420     0.9680 hc         1 LSC       0.037700
     47 H6          10.5050    -0.1570     0.1950 hc         1 LSC       0.037200
     48 H6A         10.7440    -0.6520     1.8710 hc         1 LSC       0.037200
     49 H7           8.2610    -0.8950     2.1560 hc         1 LSC       0.039700
     50 H7A          8.0170    -0.3970     0.4820 hc         1 LSC       0.039700
     51 H8           9.3200    -2.3880    -0.3040 hc         1 LSC       0.043200
     52 H8A          9.5750    -2.8900     1.3620 hc         1 LSC       0.043200
     53 H9           7.0960    -3.2350     1.6760 ha         1 LSC       0.163000
     54 H10          7.3810    -3.4660    -1.3910 ha         1 LSC       0.166000
     55 H11          5.7150    -5.2980    -0.8750 hc         1 LSC       0.042200
     56 H11A         5.2650    -4.4930     0.6220 hc         1 LSC       0.042200
     57 H12          4.4390    -2.5130    -0.7190 hc         1 LSC       0.041700
     58 H12A         4.8140    -3.3890    -2.2030 hc         1 LSC       0.041700
     59 H13          3.1900    -5.1960    -1.5380 hc         1 LSC       0.036200
     60 H13A         2.8200    -4.3120    -0.0570 hc         1 LSC       0.036200
     61 H14          1.9920    -2.3710    -1.4500 hc         1 LSC       0.041200
     62 H14A         2.3120    -3.3040    -2.9120 hc         1 LSC       0.041200
     63 H15          0.6690    -5.0550    -2.1350 hc         1 LSC       0.036200
     64 H15A         0.3470    -4.0970    -0.6890 hc         1 LSC       0.036200
     65 H16         -0.4690    -2.2030    -2.1530 hc         1 LSC       0.054700
     66 H16A        -0.1920    -3.2050    -3.5770 hc         1 LSC       0.054700
     67 H17         -1.8670    -4.8760    -2.7310 hc         1 LSC       0.070200
     68 H17A        -2.1210    -3.8210    -1.2890 hc         1 LSC       0.070200
     69 H20         -4.0600    -0.7120    -3.8550 h1         1 LSC       0.054200
     70 H20A        -5.3550    -1.7730    -3.2570 h1         1 LSC       0.054200
     71 H21         -5.2580    -0.6030    -1.0370 h1         1 LSC       0.095700
     72 H22         -5.8700     0.9990    -3.5480 h1         1 LSC       0.037700
     73 H22A        -6.9870     0.2490    -2.3890 h1         1 LSC       0.037700
     74 H30         -7.3070     0.9180     2.0110 h1         1 LSC       0.058200
     75 H30A        -7.3040     2.6770     1.8010 h1         1 LSC       0.058200
     76 H31         -5.1950     0.7610     0.6940 hx         1 LSC       0.079200
     77 H31A        -5.1740     2.5140     0.5050 hx         1 LSC       0.079200
     78 H33         -5.8340     3.2750     3.4380 hx         1 LSC       0.095256
     79 H33A        -4.1260     3.2980     3.9490 hx         1 LSC       0.095256
     80 H33B        -4.5940     3.9910     2.3730 hx         1 LSC       0.095256
     81 HO33        -4.1740     1.6470    -1.5620 ho         1 LSC       0.432000
     82 H34         -4.7420    -0.2600     2.9530 hx         1 LSC       0.095256
     83 H34A        -4.2380     0.7990     4.2970 hx         1 LSC       0.095256
     84 H34B        -5.9370     0.7940     3.7580 hx         1 LSC       0.095256
     85 H35         -2.8770     2.5060     1.2890 hx         1 LSC       0.095256
     86 H35A        -2.4700     1.8090     2.8820 hx         1 LSC       0.095256
     87 H35B        -2.9470     0.7400     1.5350 hx         1 LSC       0.095256
@<TRIPOS>BOND
     1     1     2 1   
     2     1    36 1   
     3     1    37 1   
     4     1    38 1   
     5     2     3 1   
     6     2    39 1   
     7     2    40 1   
     8     3     4 1   
     9     3    41 1   
    10     3    42 1   
    11     4     5 1   
    12     4    43 1   
    13     4    44 1   
    14     5     6 1   
    15     5    45 1   
    16     5    46 1   
    17     6     7 1   
    18     6    47 1   
    19     6    48 1   
    20     7     8 1   
    21     7    49 1   
    22     7    50 1   
    23     8     9 1   
    24     8    51 1   
    25     8    52 1   
    26     9    10 2   
    27     9    53 1   
    28    10    11 1   
    29    10    54 1   
    30    11    12 1   
    31    11    55 1   
    32    11    56 1   
    33    12    13 1   
    34    12    57 1   
    35    12    58 1   
    36    13    14 1   
    37    13    59 1   
    38    13    60 1   
    39    14    15 1   
    40    14    61 1   
    41    14    62 1   
    42    15    16 1   
    43    15    63 1   
    44    15    64 1   
    45    16    17 1   
    46    16    65 1   
    47    16    66 1   
    48    17    18 1   
    49    17    67 1   
    50    17    68 1   
    51    18    19 1   
    52    18    29 2   
    53    19    20 1   
    54    20    21 1   
    55    20    69 1   
    56    20    70 1   
    57    21    22 1   
    58    21    31 1   
    59    21    71 1   
    60    22    23 1   
    61    22    72 1   
    62    22    73 1   
    63    23    24 1   
    64    24    25 1   
    65    24    33 1   
    66    24    35 1   
    67    26    27 1   
    68    26    35 1   
    69    26    74 1   
    70    26    75 1   
    71    27    28 1   
    72    27    76 1   
    73    27    77 1   
    74    28    30 1   
    75    28    32 1   
    76    28    34 1   
    77    30    78 1   
    78    30    79 1   
    79    30    80 1   
    80    31    81 1   
    81    32    82 1   
    82    32    83 1   
    83    32    84 1   
    84    34    85 1   
    85    34    86 1   
    86    34    87 1   
@<TRIPOS>SUBSTRUCTURE
     1 LSC         1 TEMP              0 ****  ****    0 ROOT
