@<TRIPOS>MOLECULE
LSC
   87    86     1     0     0
SMALL
abcg2


@<TRIPOS>ATOM
      1 C1          17.0390     3.7980     1.7760 c3         1 LSC      -0.088100
      2 C2          16.5040     2.4710     1.2570 c3         1 LSC      -0.074400
      3 C3          14.9870     2.3650     1.3540 c3         1 LSC      -0.075400
      4 C4          14.4400     1.0380     0.8410 c3         1 LSC      -0.074400
      5 C5          12.9250     0.9280     0.9510 c3         1 LSC      -0.074400
      6 C6          12.3830    -0.4040     0.4460 c3         1 LSC      -0.075400
      7 C7          10.8750    -0.5430     0.6140 c3         1 LSC      -0.071400
      8 C8          10.3450    -1.8880     0.1170 c3         1 LSC      -0.040200
      9 C9           8.8980    -2.0960     0.4360 c2         1 LSC      -0.218200
     10 C10          7.9310    -2.3250    -0.4480 c2         1 LSC      -0.218200
     11 C11          6.4930    -2.5520    -0.1020 c3         1 LSC      -0.041200
     12 C12          5.5430    -1.5600    -0.7720 c3         1 LSC      -0.071400
     13 C13          4.0860    -1.8290    -0.4140 c3         1 LSC      -0.076400
     14 C14          3.0980    -0.9040    -1.1130 c3         1 LSC      -0.073400
     15 C15          1.6530    -1.2040    -0.7330 c3         1 LSC      -0.077400
     16 C16          0.6390    -0.3370    -1.4670 c3         1 LSC      -0.067400
     17 C17         -0.7840    -0.6920    -1.0660 c3         1 LSC      -0.138400
     18 C18         -1.8410     0.0990    -1.7880 c          1 LSC       0.592100
     19 O19         -3.0610    -0.2840    -1.4230 os         1 LSC      -0.443100
     20 C20         -4.1800     0.3580    -2.0310 c3         1 LSC       0.127600
     21 C21         -5.4340    -0.2510    -1.4280 c3         1 LSC       0.153300
     22 C22         -6.6580     0.2880    -2.1530 c3         1 LSC       0.191600
     23 O23         -7.7980    -0.3820    -1.6630 os         1 LSC      -0.595400
     24 P24         -9.2600     0.3520    -1.7600 p5         1 LSC       1.386800
     25 O25         -9.2190     1.6880    -1.0770 o          1 LSC      -0.808500
     26 C30        -11.0380    -0.3770     0.0780 c3         1 LSC       0.218600
     27 C31        -10.8150    -0.8320     1.5040 c3         1 LSC       0.084600
     28 N32         -9.7490    -0.1320     2.3110 n4         1 LSC      -0.488000
     29 O32         -1.6350     0.9690    -2.5960 o          1 LSC      -0.488000
     30 C33         -8.3720    -0.5020     1.8690 c3         1 LSC       0.074233
     31 O33         -5.5010    -0.0600    -0.0370 oh         1 LSC      -0.656000
     32 C34         -9.9050     1.3470     2.2480 c3         1 LSC       0.074233
     33 O34         -9.7980     0.2360    -3.1500 o          1 LSC      -0.808500
     34 C35         -9.9160    -0.5730     3.7250 c3         1 LSC       0.074233
     35 O35         -9.9880    -0.7540    -0.7810 os         1 LSC      -0.580400
     36 H1          16.7950     3.9360     2.8320 hc         1 LSC       0.031367
     37 H1A         18.1230     3.8610     1.6780 hc         1 LSC       0.031367
     38 H1B         16.6080     4.6380     1.2280 hc         1 LSC       0.031367
     39 H2          16.8100     2.3340     0.2150 hc         1 LSC       0.036700
     40 H2A         16.9590     1.6470     1.8160 hc         1 LSC       0.036700
     41 H3          14.6810     2.5040     2.3980 hc         1 LSC       0.037200
     42 H3A         14.5300     3.1880     0.7940 hc         1 LSC       0.037200
     43 H4          14.7400     0.9020    -0.2040 hc         1 LSC       0.036700
     44 H4A         14.9030     0.2160     1.3980 hc         1 LSC       0.036700
     45 H5          12.6280     1.0650     1.9970 hc         1 LSC       0.037700
     46 H5A         12.4580     1.7480     0.3940 hc         1 LSC       0.037700
     47 H6          12.6470    -0.5280    -0.6110 hc         1 LSC       0.037200
     48 H6A         12.8790    -1.2220     0.9800 hc         1 LSC       0.037200
     49 H7          10.6190    -0.4230     1.6720 hc         1 LSC       0.039700
     50 H7A         10.3650     0.2670     0.0830 hc         1 LSC       0.039700
     51 H8          10.5100    -1.9810    -0.9610 hc         1 LSC       0.043200
     52 H8A         10.9300    -2.6870     0.5880 hc         1 LSC       0.043200
     53 H9           8.6380    -2.0570     1.4930 ha         1 LSC       0.163000
     54 H10          8.1830    -2.3640    -1.5070 ha         1 LSC       0.166000
     55 H11          6.2050    -3.5640    -0.4090 hc         1 LSC       0.042200
     56 H11A         6.3640    -2.5100     0.9840 hc         1 LSC       0.042200
     57 H12          5.8140    -0.5410    -0.4780 hc         1 LSC       0.041700
     58 H12A         5.6690    -1.6110    -1.8590 hc         1 LSC       0.041700
     59 H13          3.8420    -2.8670    -0.6650 hc         1 LSC       0.036200
     60 H13A         3.9600    -1.7420     0.6710 hc         1 LSC       0.036200
     61 H14          3.3320     0.1380    -0.8710 hc         1 LSC       0.041200
     62 H14A         3.2150    -1.0000    -2.1980 hc         1 LSC       0.041200
     63 H15          1.4420    -2.2590    -0.9390 hc         1 LSC       0.036200
     64 H15A         1.5300    -1.0750     0.3480 hc         1 LSC       0.036200
     65 H16          0.8330     0.7180    -1.2560 hc         1 LSC       0.054700
     66 H16A         0.7630    -0.4680    -2.5460 hc         1 LSC       0.054700
     67 H17         -0.9750    -1.7550    -1.2430 hc         1 LSC       0.070200
     68 H17A        -0.9250    -0.5460     0.0100 hc         1 LSC       0.070200
     69 H20         -4.1450     1.4370    -1.8490 h1         1 LSC       0.054200
     70 H20A        -4.1650     0.2010    -3.1120 h1         1 LSC       0.054200
     71 H21         -5.3960    -1.3350    -1.5800 h1         1 LSC       0.095700
     72 H22         -6.7300     1.3710    -1.9960 h1         1 LSC       0.037700
     73 H22A        -6.5440     0.1240    -3.2300 h1         1 LSC       0.037700
     74 H30        -11.9590    -0.8800    -0.2330 h1         1 LSC       0.058200
     75 H30A       -11.2430     0.6940     0.0400 h1         1 LSC       0.058200
     76 H31        -11.7490    -0.6780     2.0430 hx         1 LSC       0.079200
     77 H31A       -10.5810    -1.8960     1.5390 hx         1 LSC       0.079200
     78 H33         -8.1570    -0.0840     0.8960 hx         1 LSC       0.095256
     79 H33A        -7.6670    -0.1030     2.5930 hx         1 LSC       0.095256
     80 H33B        -8.2870    -1.5840     1.8370 hx         1 LSC       0.095256
     81 HO33        -5.5960     0.8810     0.1450 ho         1 LSC       0.432000
     82 H34        -10.9200     1.6130     2.5310 hx         1 LSC       0.095256
     83 H34A        -9.2030     1.7970     2.9460 hx         1 LSC       0.095256
     84 H34B        -9.6890     1.6950     1.2400 hx         1 LSC       0.095256
     85 H35         -9.8200    -1.6540     3.7790 hx         1 LSC       0.095256
     86 H35A        -9.1460    -0.1090     4.3360 hx         1 LSC       0.095256
     87 H35B       -10.8970    -0.2740     4.0840 hx         1 LSC       0.095256
@<TRIPOS>BOND
     1     1     2 1   
     2     1    36 1   
     3     1    37 1   
     4     1    38 1   
     5     2     3 1   
     6     2    39 1   
     7     2    40 1   
     8     3     4 1   
     9     3    41 1   
    10     3    42 1   
    11     4     5 1   
    12     4    43 1   
    13     4    44 1   
    14     5     6 1   
    15     5    45 1   
    16     5    46 1   
    17     6     7 1   
    18     6    47 1   
    19     6    48 1   
    20     7     8 1   
    21     7    49 1   
    22     7    50 1   
    23     8     9 1   
    24     8    51 1   
    25     8    52 1   
    26     9    10 2   
    27     9    53 1   
    28    10    11 1   
    29    10    54 1   
    30    11    12 1   
    31    11    55 1   
    32    11    56 1   
    33    12    13 1   
    34    12    57 1   
    35    12    58 1   
    36    13    14 1   
    37    13    59 1   
    38    13    60 1   
    39    14    15 1   
    40    14    61 1   
    41    14    62 1   
    42    15    16 1   
    43    15    63 1   
    44    15    64 1   
    45    16    17 1   
    46    16    65 1   
    47    16    66 1   
    48    17    18 1   
    49    17    67 1   
    50    17    68 1   
    51    18    19 1   
    52    18    29 2   
    53    19    20 1   
    54    20    21 1   
    55    20    69 1   
    56    20    70 1   
    57    21    22 1   
    58    21    31 1   
    59    21    71 1   
    60    22    23 1   
    61    22    72 1   
    62    22    73 1   
    63    23    24 1   
    64    24    25 1   
    65    24    33 1   
    66    24    35 1   
    67    26    27 1   
    68    26    35 1   
    69    26    74 1   
    70    26    75 1   
    71    27    28 1   
    72    27    76 1   
    73    27    77 1   
    74    28    30 1   
    75    28    32 1   
    76    28    34 1   
    77    30    78 1   
    78    30    79 1   
    79    30    80 1   
    80    31    81 1   
    81    32    82 1   
    82    32    83 1   
    83    32    84 1   
    84    34    85 1   
    85    34    86 1   
    86    34    87 1   
@<TRIPOS>SUBSTRUCTURE
     1 LSC         1 TEMP              0 ****  ****    0 ROOT
