@<TRIPOS>MOLECULE
LSD
   95    97     1     0     0
SMALL
bcc


@<TRIPOS>ATOM
      1 O1           1.3060    -0.8620    -0.9370 o          1 LSD      -0.828300
      2 C1           2.2670    -1.5330    -1.3770 c          1 LSD       0.950200
      3 O2           2.3440    -2.0790    -2.4850 o          1 LSD      -0.828300
      4 C2           3.4810    -1.6810    -0.4710 ca         1 LSD      -0.145600
      5 C3           3.7270    -2.9060     0.1480 ca         1 LSD       0.153100
      6 O3           2.8170    -3.8880    -0.0610 oh         1 LSD      -0.478100
      7 C4           4.8530    -3.1100     0.9540 ca         1 LSD      -0.195300
      8 C34          5.0900    -4.4330     1.6250 c3         1 LSD      -0.035800
      9 C5           5.7420    -2.0520     1.1040 ca         1 LSD      -0.114000
     10 C6           5.5170    -0.8290     0.4900 ca         1 LSD      -0.177000
     11 C7           4.3870    -0.6310    -0.2970 ca         1 LSD      -0.039300
     12 C8           4.0980     0.7210    -0.8930 c3         1 LSD      -0.021100
     13 C9           3.1850     1.5290     0.0440 c3         1 LSD      -0.069400
     14 C10          2.2330     2.5770    -0.5870 c3         1 LSD      -0.082700
     15 C33          1.9280     2.3680    -2.0690 c3         1 LSD      -0.091100
     16 C11          0.9540     2.6150     0.2660 c3         1 LSD       0.185100
     17 O4           0.2050     1.4250     0.1730 oh         1 LSD      -0.650800
     18 C12          0.0010     3.7590    -0.0850 c3         1 LSD      -0.171700
     19 C32          0.6210     5.1450     0.1040 c3         1 LSD      -0.081100
     20 C13         -1.2520     3.7030     0.7760 c          1 LSD       0.603100
     21 O5          -1.1850     3.6360     1.9820 o          1 LSD      -0.518100
     22 C14         -2.5790     3.7850     0.0400 c3         1 LSD      -0.149700
     23 C30         -3.7010     4.3890     0.8760 c3         1 LSD      -0.059400
     24 C31         -3.4590     5.8510     1.2300 c3         1 LSD      -0.091100
     25 C15         -2.8660     2.3800    -0.5010 c5         1 LSD       0.148100
     26 O6          -3.1980     1.5260     0.5690 os         1 LSD      -0.394600
     27 C16         -4.0170     2.2240    -1.4900 c5         1 LSD      -0.102700
     28 C29         -3.6900     2.7090    -2.8900 c3         1 LSD      -0.079100
     29 C17         -4.2530     0.7150    -1.3850 c5         1 LSD      -0.095400
     30 C18         -3.8240     0.3530     0.0580 c5         1 LSD       0.167800
     31 C27         -5.0110     0.0120     0.9590 c3         1 LSD      -0.068400
     32 C28         -6.0850     1.0890     1.0280 c3         1 LSD      -0.084100
     33 C19         -2.7610    -0.7620     0.0420 c6         1 LSD       0.134100
     34 C20         -2.1220    -1.0670     1.3870 c6         1 LSD      -0.088400
     35 O7          -3.3810    -1.9130    -0.4950 os         1 LSD      -0.422600
     36 C23         -2.5250    -3.0180    -0.7200 c6         1 LSD       0.168100
     37 C24         -1.5800    -2.7730    -1.8920 c3         1 LSD      -0.134100
     38 C22         -1.8280    -3.4480     0.5850 c6         1 LSD       0.134800
     39 C21         -1.1570    -2.2370     1.2350 c6         1 LSD      -0.117400
     40 O8          -2.8820    -3.9280     1.4120 oh         1 LSD      -0.606800
     41 C25         -0.8180    -4.5700     0.3120 c3         1 LSD      -0.102400
     42 C26         -0.2380    -5.2140     1.5650 c3         1 LSD      -0.085100
     43 H2           3.0370    -4.6720     0.4530 ho         1 LSD       0.399000
     44 H3           5.1500    -5.2590     0.9110 hc         1 LSD       0.026700
     45 H4           6.0300    -4.4200     2.1750 hc         1 LSD       0.026700
     46 H5           4.3050    -4.6810     2.3450 hc         1 LSD       0.026700
     47 H6           6.6240    -2.1920     1.7180 ha         1 LSD       0.105000
     48 H7           6.2270    -0.0210     0.6250 ha         1 LSD       0.111000
     49 H8           5.0320     1.2600    -1.0710 hc         1 LSD       0.045200
     50 H9           3.6390     0.5910    -1.8730 hc         1 LSD       0.045200
     51 H10          2.5950     0.8100     0.6100 hc         1 LSD       0.045200
     52 H11          3.8080     2.0300     0.7890 hc         1 LSD       0.045200
     53 H12          2.7150     3.5550    -0.4960 hc         1 LSD       0.025700
     54 H13          2.8360     2.4310    -2.6690 hc         1 LSD       0.038367
     55 H14          1.4710     1.3990    -2.2670 hc         1 LSD       0.038367
     56 H15          1.2530     3.1380    -2.4440 hc         1 LSD       0.038367
     57 H16          1.2770     2.7720     1.3090 h1         1 LSD       0.033700
     58 H17          0.7220     0.6770    -0.1850 ho         1 LSD       0.486000
     59 H18         -0.3020     3.6590    -1.1310 hc         1 LSD       0.060700
     60 H19          1.4210     5.3180    -0.6140 hc         1 LSD       0.032033
     61 H20         -0.1180     5.9340    -0.0470 hc         1 LSD       0.032033
     62 H21          1.0310     5.2600     1.1090 hc         1 LSD       0.032033
     63 H22         -2.4170     4.4190    -0.8430 hc         1 LSD       0.052700
     64 H23         -4.6330     4.3240     0.3120 hc         1 LSD       0.050700
     65 H24         -3.8550     3.8050     1.7840 hc         1 LSD       0.050700
     66 H25         -2.5880     5.9810     1.8720 hc         1 LSD       0.027033
     67 H26         -3.3040     6.4540     0.3330 hc         1 LSD       0.027033
     68 H27         -4.3160     6.2690     1.7600 hc         1 LSD       0.027033
     69 H28         -1.9520     2.0230    -1.0000 h1         1 LSD       0.070700
     70 H29         -4.8970     2.7580    -1.1190 hc         1 LSD       0.050700
     71 H30         -2.8210     2.1830    -3.2910 hc         1 LSD       0.032033
     72 H31         -4.5240     2.5440    -3.5730 hc         1 LSD       0.032033
     73 H32         -3.4670     3.7780    -2.9020 hc         1 LSD       0.032033
     74 H33         -5.2850     0.4330    -1.5970 hc         1 LSD       0.056700
     75 H34         -3.6270     0.1950    -2.1160 hc         1 LSD       0.056700
     76 H35         -5.4530    -0.9230     0.6060 hc         1 LSD       0.054700
     77 H36         -4.6500    -0.1890     1.9710 hc         1 LSD       0.054700
     78 H37         -5.6950     2.0230     1.4300 hc         1 LSD       0.024367
     79 H38         -6.5180     1.3020     0.0490 hc         1 LSD       0.024367
     80 H39         -6.9010     0.7670     1.6750 hc         1 LSD       0.024367
     81 H40         -1.9520    -0.4210    -0.6230 h1         1 LSD       0.067700
     82 H41         -1.5800    -0.1840     1.7260 hc         1 LSD       0.054200
     83 H42         -2.8800    -1.2940     2.1400 hc         1 LSD       0.054200
     84 H43         -3.1990    -3.8350    -1.0060 h1         1 LSD       0.059700
     85 H44         -1.1260    -3.7080    -2.2200 hc         1 LSD       0.056033
     86 H45         -2.1480    -2.3770    -2.7360 hc         1 LSD       0.056033
     87 H46         -0.7690    -2.0800    -1.6690 hc         1 LSD       0.056033
     88 H47         -0.3000    -1.9280     0.6300 hc         1 LSD       0.068700
     89 H48         -0.7500    -2.5190     2.2120 hc         1 LSD       0.068700
     90 H49         -2.5580    -3.9770     2.3170 ho         1 LSD       0.391000
     91 H50         -1.3020    -5.3430    -0.2960 hc         1 LSD       0.060700
     92 H51          0.0060    -4.1730    -0.2830 hc         1 LSD       0.060700
     93 H52          0.3040    -4.4950     2.1810 hc         1 LSD       0.023367
     94 H53         -1.0060    -5.6790     2.1850 hc         1 LSD       0.023367
     95 H54          0.4690    -5.9980     1.2930 hc         1 LSD       0.023367
@<TRIPOS>BOND
     1     1     2 1   
     2     2     3 1   
     3     2     4 1   
     4     4     5 ar  
     5     4    11 ar  
     6     5     6 1   
     7     5     7 ar  
     8     6    43 1   
     9     7     8 1   
    10     7     9 ar  
    11     8    44 1   
    12     8    45 1   
    13     8    46 1   
    14     9    10 ar  
    15     9    47 1   
    16    10    11 ar  
    17    10    48 1   
    18    11    12 1   
    19    12    13 1   
    20    12    49 1   
    21    12    50 1   
    22    13    14 1   
    23    13    51 1   
    24    13    52 1   
    25    14    15 1   
    26    14    16 1   
    27    14    53 1   
    28    15    54 1   
    29    15    55 1   
    30    15    56 1   
    31    16    17 1   
    32    16    18 1   
    33    16    57 1   
    34    17    58 1   
    35    18    19 1   
    36    18    20 1   
    37    18    59 1   
    38    19    60 1   
    39    19    61 1   
    40    19    62 1   
    41    20    21 2   
    42    20    22 1   
    43    22    23 1   
    44    22    25 1   
    45    22    63 1   
    46    23    24 1   
    47    23    64 1   
    48    23    65 1   
    49    24    66 1   
    50    24    67 1   
    51    24    68 1   
    52    25    26 1   
    53    25    27 1   
    54    25    69 1   
    55    26    30 1   
    56    27    28 1   
    57    27    29 1   
    58    27    70 1   
    59    28    71 1   
    60    28    72 1   
    61    28    73 1   
    62    29    30 1   
    63    29    74 1   
    64    29    75 1   
    65    30    31 1   
    66    30    33 1   
    67    31    32 1   
    68    31    76 1   
    69    31    77 1   
    70    32    78 1   
    71    32    79 1   
    72    32    80 1   
    73    33    34 1   
    74    33    35 1   
    75    33    81 1   
    76    34    39 1   
    77    34    82 1   
    78    34    83 1   
    79    35    36 1   
    80    36    37 1   
    81    36    38 1   
    82    36    84 1   
    83    37    85 1   
    84    37    86 1   
    85    37    87 1   
    86    38    39 1   
    87    38    40 1   
    88    38    41 1   
    89    39    88 1   
    90    39    89 1   
    91    40    90 1   
    92    41    42 1   
    93    41    91 1   
    94    41    92 1   
    95    42    93 1   
    96    42    94 1   
    97    42    95 1   
@<TRIPOS>SUBSTRUCTURE
     1 LSD         1 TEMP              0 ****  ****    0 ROOT
