@<TRIPOS>MOLECULE
LSD
   95    97     1     0     0
SMALL
No Charge or Current Charge


@<TRIPOS>ATOM
      1 O1           1.5740    -0.4200    -1.8260 o          1 LSD      -0.723000
      2 C1           2.6520    -0.9340    -2.0970 c          1 LSD       0.739600
      3 O2           3.2110    -0.8060    -3.1790 o          1 LSD      -0.723000
      4 C2           3.3830    -1.6720    -1.0080 ca         1 LSD      -0.145600
      5 C3           3.3610    -3.0820    -0.9930 ca         1 LSD       0.153100
      6 O3           2.6800    -3.7660    -1.9590 oh         1 LSD      -0.517100
      7 C4           4.0360    -3.8000     0.0180 ca         1 LSD      -0.195300
      8 C34          4.0250    -5.3270     0.0530 c3         1 LSD      -0.035800
      9 C5           4.7320    -3.0930     1.0150 ca         1 LSD      -0.096000
     10 C6           4.7590    -1.6910     1.0050 ca         1 LSD      -0.159000
     11 C7           4.0930    -0.9690    -0.0010 ca         1 LSD      -0.039300
     12 C8           4.1170     0.5590     0.0240 c3         1 LSD      -0.021100
     13 C9           2.7910     1.1160     0.6110 c3         1 LSD      -0.069400
     14 C10          2.2130     2.4640     0.0550 c3         1 LSD      -0.082700
     15 C33          2.6420     2.8560    -1.3890 c3         1 LSD      -0.091100
     16 C11          0.6600     2.4630     0.2360 c3         1 LSD       0.208300
     17 O4           0.0870     1.5020    -0.6570 oh         1 LSD      -0.713000
     18 C12         -0.0910     3.8090     0.0130 c3         1 LSD      -0.171700
     19 C32          0.5850     5.0420     0.6710 c3         1 LSD      -0.081100
     20 C13         -1.5350     3.6660     0.5520 c          1 LSD       0.603100
     21 O5          -1.7330     3.5350     1.7570 o          1 LSD      -0.518100
     22 C14         -2.7080     3.6880    -0.4640 c3         1 LSD      -0.149700
     23 C30         -3.8510     4.6430    -0.0150 c3         1 LSD      -0.059400
     24 C31         -3.3910     6.0990     0.2100 c3         1 LSD      -0.091100
     25 C15         -3.1460     2.2250    -0.7370 c5         1 LSD       0.171300
     26 O6          -3.6010     1.5870     0.4610 os         1 LSD      -0.441000
     27 C16         -4.3500     1.9460    -1.6670 c5         1 LSD      -0.102700
     28 C29         -4.1410     2.3120    -3.1520 c3         1 LSD      -0.079100
     29 C17         -4.5280     0.4170    -1.3870 c5         1 LSD      -0.095400
     30 C18         -4.0190     0.2500     0.1010 c5         1 LSD       0.191000
     31 C27         -5.1410    -0.1820     1.0990 c3         1 LSD      -0.068400
     32 C28         -6.3500     0.7790     1.2150 c3         1 LSD      -0.084100
     33 C19         -2.7640    -0.7120     0.1770 c6         1 LSD       0.157300
     34 C20         -1.9290    -0.5630     1.4860 c6         1 LSD      -0.088400
     35 O7          -3.1510    -2.1060     0.0170 os         1 LSD      -0.469000
     36 C23         -2.0480    -3.0540    -0.0730 c6         1 LSD       0.191300
     37 C24         -1.3190    -2.8300    -1.4330 c3         1 LSD      -0.134100
     38 C22         -1.1360    -3.0000     1.2230 c6         1 LSD       0.158000
     39 C21         -0.7080    -1.5230     1.4810 c6         1 LSD      -0.117400
     40 O8          -1.8920    -3.4520     2.3600 oh         1 LSD      -0.729000
     41 C25          0.1100    -3.9430     1.0920 c3         1 LSD      -0.102400
     42 C26          1.0570    -4.0240     2.3150 c3         1 LSD      -0.085100
     43 H2           2.8210    -4.7210    -1.8020 ho         1 LSD       0.438000
     44 H3           4.5390    -5.7450    -0.8210 hc         1 LSD       0.026700
     45 H4           4.5290    -5.7170     0.9450 hc         1 LSD       0.026700
     46 H5           3.0000    -5.7180     0.0640 hc         1 LSD       0.026700
     47 H6           5.2550    -3.6290     1.8040 ha         1 LSD       0.087000
     48 H7           5.2980    -1.1620     1.7880 ha         1 LSD       0.093000
     49 H8           4.9590     0.9340     0.6180 hc         1 LSD       0.045200
     50 H9           4.2960     0.9130    -0.9950 hc         1 LSD       0.045200
     51 H10          2.0310     0.3330     0.5320 hc         1 LSD       0.045200
     52 H11          2.9260     1.2260     1.6940 hc         1 LSD       0.045200
     53 H12          2.6230     3.2420     0.7100 hc         1 LSD       0.025700
     54 H13          3.7230     3.0350    -1.4390 hc         1 LSD       0.038367
     55 H14          2.3840     2.0800    -2.1160 hc         1 LSD       0.038367
     56 H15          2.1570     3.7850    -1.7060 hc         1 LSD       0.038367
     57 H16          0.4700     2.1530     1.2730 h1         1 LSD       0.033700
     58 H17          0.8080     0.8890    -0.9840 ho         1 LSD       0.525000
     59 H18         -0.1370     3.9940    -1.0660 hc         1 LSD       0.060700
     60 H19          1.5480     5.2670     0.2000 hc         1 LSD       0.032033
     61 H20         -0.0500     5.9300     0.5600 hc         1 LSD       0.032033
     62 H21          0.7530     4.8740     1.7410 hc         1 LSD       0.032033
     63 H22         -2.3160     4.0590    -1.4170 hc         1 LSD       0.052700
     64 H23         -4.6380     4.6540    -0.7780 hc         1 LSD       0.050700
     65 H24         -4.3110     4.2650     0.9070 hc         1 LSD       0.050700
     66 H25         -2.6750     6.1670     1.0370 hc         1 LSD       0.027033
     67 H26         -2.9170     6.5000    -0.6940 hc         1 LSD       0.027033
     68 H27         -4.2500     6.7350     0.4540 hc         1 LSD       0.027033
     69 H28         -2.2710     1.6880    -1.1200 h1         1 LSD       0.070700
     70 H29         -5.2390     2.4900    -1.3260 hc         1 LSD       0.050700
     71 H30         -3.2530     1.8170    -3.5630 hc         1 LSD       0.032033
     72 H31         -5.0050     2.0080    -3.7560 hc         1 LSD       0.032033
     73 H32         -4.0110     3.3930    -3.2770 hc         1 LSD       0.032033
     74 H33         -5.5640     0.0920    -1.5270 hc         1 LSD       0.056700
     75 H34         -3.9280    -0.1850    -2.0790 hc         1 LSD       0.056700
     76 H35         -5.5210    -1.1690     0.8130 hc         1 LSD       0.054700
     77 H36         -4.7240    -0.3020     2.1050 hc         1 LSD       0.054700
     78 H37         -6.0310     1.7730     1.5490 hc         1 LSD       0.024367
     79 H38         -6.8690     0.8860     0.2550 hc         1 LSD       0.024367
     80 H39         -7.0710     0.3920     1.9450 hc         1 LSD       0.024367
     81 H40         -2.1040    -0.4410    -0.6570 h1         1 LSD       0.067700
     82 H41         -1.5710     0.4690     1.5930 hc         1 LSD       0.054200
     83 H42         -2.5510    -0.7660     2.3670 hc         1 LSD       0.054200
     84 H43         -2.4950    -4.0580    -0.1240 h1         1 LSD       0.059700
     85 H44         -0.7010    -3.6970    -1.6930 hc         1 LSD       0.056033
     86 H45         -2.0410    -2.6970    -2.2470 hc         1 LSD       0.056033
     87 H46         -0.6620    -1.9550    -1.4200 hc         1 LSD       0.056033
     88 H47          0.0040    -1.2010     0.7100 hc         1 LSD       0.068700
     89 H48         -0.1760    -1.4310     2.4370 hc         1 LSD       0.068700
     90 H49         -1.2800    -3.4240     3.1270 ho         1 LSD       0.490000
     91 H50         -0.2290    -4.9600     0.8580 hc         1 LSD       0.060700
     92 H51          0.7200    -3.6290     0.2380 hc         1 LSD       0.060700
     93 H52          1.5310    -3.0550     2.5140 hc         1 LSD       0.023367
     94 H53          0.5250    -4.3470     3.2160 hc         1 LSD       0.023367
     95 H54          1.8570    -4.7490     2.1240 hc         1 LSD       0.023367
@<TRIPOS>BOND
     1     1     2 1   
     2     2     3 1   
     3     2     4 1   
     4     4     5 ar  
     5     4    11 ar  
     6     5     6 1   
     7     5     7 ar  
     8     6    43 1   
     9     7     8 1   
    10     7     9 ar  
    11     8    44 1   
    12     8    45 1   
    13     8    46 1   
    14     9    10 ar  
    15     9    47 1   
    16    10    11 ar  
    17    10    48 1   
    18    11    12 1   
    19    12    13 1   
    20    12    49 1   
    21    12    50 1   
    22    13    14 1   
    23    13    51 1   
    24    13    52 1   
    25    14    15 1   
    26    14    16 1   
    27    14    53 1   
    28    15    54 1   
    29    15    55 1   
    30    15    56 1   
    31    16    17 1   
    32    16    18 1   
    33    16    57 1   
    34    17    58 1   
    35    18    19 1   
    36    18    20 1   
    37    18    59 1   
    38    19    60 1   
    39    19    61 1   
    40    19    62 1   
    41    20    21 2   
    42    20    22 1   
    43    22    23 1   
    44    22    25 1   
    45    22    63 1   
    46    23    24 1   
    47    23    64 1   
    48    23    65 1   
    49    24    66 1   
    50    24    67 1   
    51    24    68 1   
    52    25    26 1   
    53    25    27 1   
    54    25    69 1   
    55    26    30 1   
    56    27    28 1   
    57    27    29 1   
    58    27    70 1   
    59    28    71 1   
    60    28    72 1   
    61    28    73 1   
    62    29    30 1   
    63    29    74 1   
    64    29    75 1   
    65    30    31 1   
    66    30    33 1   
    67    31    32 1   
    68    31    76 1   
    69    31    77 1   
    70    32    78 1   
    71    32    79 1   
    72    32    80 1   
    73    33    34 1   
    74    33    35 1   
    75    33    81 1   
    76    34    39 1   
    77    34    82 1   
    78    34    83 1   
    79    35    36 1   
    80    36    37 1   
    81    36    38 1   
    82    36    84 1   
    83    37    85 1   
    84    37    86 1   
    85    37    87 1   
    86    38    39 1   
    87    38    40 1   
    88    38    41 1   
    89    39    88 1   
    90    39    89 1   
    91    40    90 1   
    92    41    42 1   
    93    41    91 1   
    94    41    92 1   
    95    42    93 1   
    96    42    94 1   
    97    42    95 1   
@<TRIPOS>SUBSTRUCTURE
     1 LSD         1 TEMP              0 ****  ****    0 ROOT
