@<TRIPOS>MOLECULE
LSE
   66    67     1     0     0
SMALL
No Charge or Current Charge


@<TRIPOS>ATOM
      1 O4          -1.1410     3.8330    -1.8120 oh         1 LSE      -0.724000
      2 C9          -0.6910     2.7070    -1.0180 c6         1 LSE       0.105300
      3 C10          0.6270     2.1200    -1.5930 c6         1 LSE       0.175300
      4 O3           1.6040     3.1720    -1.6880 oh         1 LSE      -0.690000
      5 C8          -1.7500     1.5640    -0.9390 c6         1 LSE       0.363300
      6 O5          -2.9800     2.0620    -0.3890 os         1 LSE      -0.454000
      7 C13         -4.0730     1.1320    -0.3550 c3         1 LSE       0.191600
      8 C14         -5.2860     1.8700     0.2390 c3         1 LSE      -0.078400
      9 SI          -6.7590     0.8060     0.3450 s6         1 LSE      -0.218000
     10 C18         -6.4030    -0.6260     1.3990 c3         1 LSE      -0.103433
     11 C17         -8.1300     1.7520     1.0610 c3         1 LSE      -0.103433
     12 C16         -7.2240     0.2370    -1.3130 c3         1 LSE      -0.103433
     13 O2          -1.2420     0.5120    -0.0990 os         1 LSE      -0.469000
     14 C7          -0.0530    -0.1350    -0.6210 c6         1 LSE       0.163300
     15 C11          0.2480    -1.3610     0.2920 c3         1 LSE       0.128600
     16 SE6         -1.1620    -2.5730     0.4150 ss         1 LSE      -0.525000
     17 C12         -0.4140    -3.8150     1.5700 c3         1 LSE       0.099900
     18 C6           1.1120     0.9120    -0.7240 c6         1 LSE       0.149300
     19 O1           2.3350     0.3480    -1.2750 os         1 LSE      -0.443000
     20 C5           3.2970    -0.1470    -0.3200 c6         1 LSE       0.375300
     21 O            3.8810     0.9590     0.3910 os         1 LSE      -0.437000
     22 C4           4.4240    -0.9410    -1.0580 c6         1 LSE       0.104300
     23 O7           3.9090    -2.0570    -1.8280 oh         1 LSE      -0.734000
     24 C3           5.4700    -1.4340    -0.0130 c6         1 LSE       0.139300
     25 O8           6.5500    -2.1060    -0.6870 oh         1 LSE      -0.667000
     26 C2           6.0120    -0.2450     0.8400 c6         1 LSE       0.145300
     27 O9           6.8550     0.5810     0.0100 oh         1 LSE      -0.707000
     28 C1           4.7960     0.5430     1.4400 c6         1 LSE       0.179300
     29 C            5.2340     1.8010     2.2590 c3         1 LSE       0.174600
     30 O10          4.1270     2.4940     2.8740 oh         1 LSE      -0.715000
     31 H1          -2.0650     4.0250    -1.5180 ho         1 LSE       0.524000
     32 H2          -0.4970     3.0380     0.0140 h1         1 LSE       0.068700
     33 H3           0.4100     1.7380    -2.6030 h1         1 LSE       0.046700
     34 H4           1.0720     3.9650    -1.9420 ho         1 LSE       0.517000
     35 H5          -1.9410     1.1700    -1.9490 h2         1 LSE       0.032700
     36 H6          -4.3110     0.7790    -1.3670 h1         1 LSE       0.030700
     37 H7          -3.8280     0.2630     0.2700 h1         1 LSE       0.030700
     38 H8          -5.0530     2.2170     1.2530 h1         1 LSE       0.067700
     39 H9          -5.5440     2.7330    -0.3870 h1         1 LSE       0.067700
     40 H10         -5.9000    -0.2770     2.3100 h1         1 LSE       0.055367
     41 H11         -7.3500    -1.1190     1.6540 h1         1 LSE       0.055367
     42 H12         -5.7530    -1.3170     0.8480 h1         1 LSE       0.055367
     43 H13         -8.3380     2.6130     0.4150 h1         1 LSE       0.055367
     44 H14         -9.0120     1.1010     1.1220 h1         1 LSE       0.055367
     45 H15         -7.8380     2.0900     2.0630 h1         1 LSE       0.055367
     46 H16         -6.5140    -0.5350    -1.6330 h1         1 LSE       0.055367
     47 H17         -8.2390    -0.1770    -1.2700 h1         1 LSE       0.055367
     48 H18         -7.1910     1.0920    -2.0000 h1         1 LSE       0.055367
     49 H19         -0.2790    -0.5180    -1.6270 h1         1 LSE       0.054700
     50 H20          1.1100    -1.9000    -0.1170 h1         1 LSE       0.071200
     51 H21          0.5070    -1.0020     1.2970 h1         1 LSE       0.071200
     52 H22          0.4970    -4.2380     1.1260 h1         1 LSE       0.055700
     53 H23         -0.1600    -3.3350     2.5240 h1         1 LSE       0.055700
     54 H24         -1.1290    -4.6260     1.7580 h1         1 LSE       0.055700
     55 H25          1.3210     1.2980     0.2850 h1         1 LSE       0.080700
     56 H26          2.8030    -0.8140     0.3990 h2         1 LSE       0.024700
     57 H27          4.9240    -0.2290    -1.7320 h1         1 LSE       0.079700
     58 H28          3.2280    -1.6840    -2.4380 ho         1 LSE       0.523000
     59 H29          4.9660    -2.1380     0.6670 h1         1 LSE       0.047700
     60 H30          6.1080    -2.6600    -1.3730 ho         1 LSE       0.469000
     61 H31          6.6010    -0.6580     1.6730 h1         1 LSE       0.050700
     62 H32          7.3360    -0.0660    -0.5630 ho         1 LSE       0.521000
     63 H33          4.2550    -0.1230     2.1280 h1         1 LSE       0.046700
     64 H34          5.9460     1.4740     3.0300 h1         1 LSE       0.039200
     65 H35          5.7750     2.4810     1.5850 h1         1 LSE       0.039200
     66 H36          4.4930     3.3120     3.2860 ho         1 LSE       0.506000
@<TRIPOS>BOND
     1     1     2 1   
     2     1    31 1   
     3     2     3 1   
     4     2     5 1   
     5     2    32 1   
     6     3     4 1   
     7     3    18 1   
     8     3    33 1   
     9     4    34 1   
    10     5     6 1   
    11     5    13 1   
    12     5    35 1   
    13     6     7 1   
    14     7     8 1   
    15     7    36 1   
    16     7    37 1   
    17     8     9 1   
    18     8    38 1   
    19     8    39 1   
    20     9    10 1   
    21     9    11 1   
    22     9    12 1   
    23    10    40 1   
    24    10    41 1   
    25    10    42 1   
    26    11    43 1   
    27    11    44 1   
    28    11    45 1   
    29    12    46 1   
    30    12    47 1   
    31    12    48 1   
    32    13    14 1   
    33    14    15 1   
    34    14    18 1   
    35    14    49 1   
    36    15    16 1   
    37    15    50 1   
    38    15    51 1   
    39    16    17 1   
    40    17    52 1   
    41    17    53 1   
    42    17    54 1   
    43    18    19 1   
    44    18    55 1   
    45    19    20 1   
    46    20    21 1   
    47    20    22 1   
    48    20    56 1   
    49    21    28 1   
    50    22    23 1   
    51    22    24 1   
    52    22    57 1   
    53    23    58 1   
    54    24    25 1   
    55    24    26 1   
    56    24    59 1   
    57    25    60 1   
    58    26    27 1   
    59    26    28 1   
    60    26    61 1   
    61    27    62 1   
    62    28    29 1   
    63    28    63 1   
    64    29    30 1   
    65    29    64 1   
    66    29    65 1   
    67    30    66 1   
@<TRIPOS>SUBSTRUCTURE
     1 LSE         1 TEMP              0 ****  ****    0 ROOT
