@<TRIPOS>MOLECULE
LSE
   66    67     1     0     0
SMALL
bcc


@<TRIPOS>ATOM
      1 O4          -1.1180     3.5690    -1.4770 oh         1 LSE      -0.601800
      2 C9          -0.7180     2.5690    -0.5750 c6         1 LSE       0.082100
      3 C10          0.6200     2.0230    -1.0690 c6         1 LSE       0.152100
      4 O3           1.6220     3.0020    -1.0360 oh         1 LSE      -0.567800
      5 C8          -1.7360     1.4370    -0.5030 c6         1 LSE       0.316900
      6 O5          -2.9100     1.9210     0.0250 os         1 LSE      -0.407600
      7 C13         -4.0570     1.1170    -0.2450 c3         1 LSE       0.168400
      8 C14         -5.2760     1.7310     0.4040 c3         1 LSE       0.032400
      9 SI          -6.8800     0.7940     0.0140 s6         1 LSE      -0.661200
     10 C18         -6.6730    -1.0210     0.4780 c3         1 LSE       0.007367
     11 C17         -8.2810     1.5650     1.0080 c3         1 LSE       0.007367
     12 C16         -7.2470     0.9380    -1.8300 c3         1 LSE       0.007367
     13 O2          -1.2450     0.4300     0.3490 os         1 LSE      -0.422600
     14 C7          -0.0760    -0.1890    -0.1400 c6         1 LSE       0.140100
     15 C11          0.2310    -1.3530     0.7790 c3         1 LSE       0.080700
     16 SE6         -1.3620    -2.4890     0.9310 ss         1 LSE      -0.429200
     17 C12         -0.4300    -4.1440     1.3850 c3         1 LSE       0.052000
     18 C6           1.0600     0.8440    -0.2090 c6         1 LSE       0.126100
     19 O1           2.1960     0.2480    -0.8040 os         1 LSE      -0.396600
     20 C5           3.2690    -0.0260     0.0210 c6         1 LSE       0.328900
     21 O            4.0140     1.1460     0.1940 os         1 LSE      -0.390600
     22 C4           4.1250    -1.1020    -0.6460 c6         1 LSE       0.081100
     23 O7           3.4300    -2.3200    -0.7740 oh         1 LSE      -0.611800
     24 C3           5.3500    -1.3610     0.2210 c6         1 LSE       0.116100
     25 O8           6.2540    -2.2520    -0.3860 oh         1 LSE      -0.604800
     26 C2           6.0950    -0.0570     0.4950 c6         1 LSE       0.122100
     27 O9           6.6760     0.4650    -0.6740 oh         1 LSE      -0.584800
     28 C1           5.1160     0.9670     1.0600 c6         1 LSE       0.156100
     29 C            5.7680     2.3120     1.2970 c3         1 LSE       0.151400
     30 O10          4.8960     3.1110     2.0590 oh         1 LSE      -0.592800
     31 H1          -1.8590     4.0490    -1.0930 ho         1 LSE       0.425000
     32 H2          -0.5820     2.9720     0.4400 h1         1 LSE       0.068700
     33 H3           0.4700     1.6470    -2.0960 h1         1 LSE       0.046700
     34 H4           1.3400     3.7320    -1.5970 ho         1 LSE       0.418000
     35 H5          -1.8980     1.0190    -1.5150 h2         1 LSE       0.032700
     36 H6          -4.1880     1.0410    -1.3320 h1         1 LSE       0.030700
     37 H7          -3.8960     0.1000     0.1320 h1         1 LSE       0.030700
     38 H8          -5.1450     1.7610     1.4900 h1         1 LSE       0.067700
     39 H9          -5.3960     2.7670     0.0700 h1         1 LSE       0.067700
     40 H10         -6.3980    -1.1360     1.5280 h1         1 LSE       0.055367
     41 H11         -7.5970    -1.5800     0.3160 h1         1 LSE       0.055367
     42 H12         -5.8960    -1.5000    -0.1200 h1         1 LSE       0.055367
     43 H13         -8.3740     2.6330     0.8000 h1         1 LSE       0.055367
     44 H14         -9.2380     1.0990     0.7640 h1         1 LSE       0.055367
     45 H15         -8.1210     1.4480     2.0810 h1         1 LSE       0.055367
     46 H16         -6.4330     0.5360    -2.4380 h1         1 LSE       0.055367
     47 H17         -8.1530     0.3900    -2.0960 h1         1 LSE       0.055367
     48 H18         -7.3950     1.9790    -2.1230 h1         1 LSE       0.055367
     49 H19         -0.2480    -0.5740    -1.1580 h1         1 LSE       0.054700
     50 H20          1.0390    -1.9550     0.3650 h1         1 LSE       0.071200
     51 H21          0.5330    -1.0030     1.7690 h1         1 LSE       0.071200
     52 H22          0.2960    -4.4040     0.6150 h1         1 LSE       0.055700
     53 H23          0.0750    -4.0600     2.3460 h1         1 LSE       0.055700
     54 H24         -1.1710    -4.9400     1.4500 h1         1 LSE       0.055700
     55 H25          1.2860     1.2040     0.8040 h1         1 LSE       0.080700
     56 H26          2.9310    -0.3960     1.0080 h2         1 LSE       0.024700
     57 H27          4.4510    -0.7260    -1.6260 h1         1 LSE       0.079700
     58 H28          2.8340    -2.2590    -1.5270 ho         1 LSE       0.424000
     59 H29          5.0060    -1.7590     1.1890 h1         1 LSE       0.047700
     60 H30          5.7640    -3.0190    -0.7020 ho         1 LSE       0.430000
     61 H31          6.8560    -0.2480     1.2660 h1         1 LSE       0.050700
     62 H32          7.1860    -0.2390    -1.0900 ho         1 LSE       0.422000
     63 H33          4.7720     0.5770     2.0330 h1         1 LSE       0.046700
     64 H34          6.7180     2.1380     1.8200 h1         1 LSE       0.039200
     65 H35          6.0120     2.7780     0.3360 h1         1 LSE       0.039200
     66 H36          5.2850     3.9870     2.1320 ho         1 LSE       0.407000
@<TRIPOS>BOND
     1     1     2 1   
     2     1    31 1   
     3     2     3 1   
     4     2     5 1   
     5     2    32 1   
     6     3     4 1   
     7     3    18 1   
     8     3    33 1   
     9     4    34 1   
    10     5     6 1   
    11     5    13 1   
    12     5    35 1   
    13     6     7 1   
    14     7     8 1   
    15     7    36 1   
    16     7    37 1   
    17     8     9 1   
    18     8    38 1   
    19     8    39 1   
    20     9    10 1   
    21     9    11 1   
    22     9    12 1   
    23    10    40 1   
    24    10    41 1   
    25    10    42 1   
    26    11    43 1   
    27    11    44 1   
    28    11    45 1   
    29    12    46 1   
    30    12    47 1   
    31    12    48 1   
    32    13    14 1   
    33    14    15 1   
    34    14    18 1   
    35    14    49 1   
    36    15    16 1   
    37    15    50 1   
    38    15    51 1   
    39    16    17 1   
    40    17    52 1   
    41    17    53 1   
    42    17    54 1   
    43    18    19 1   
    44    18    55 1   
    45    19    20 1   
    46    20    21 1   
    47    20    22 1   
    48    20    56 1   
    49    21    28 1   
    50    22    23 1   
    51    22    24 1   
    52    22    57 1   
    53    23    58 1   
    54    24    25 1   
    55    24    26 1   
    56    24    59 1   
    57    25    60 1   
    58    26    27 1   
    59    26    28 1   
    60    26    61 1   
    61    27    62 1   
    62    28    29 1   
    63    28    63 1   
    64    29    30 1   
    65    29    64 1   
    66    29    65 1   
    67    30    66 1   
@<TRIPOS>SUBSTRUCTURE
     1 LSE         1 TEMP              0 ****  ****    0 ROOT
