@<TRIPOS>MOLECULE
LSF
   40    42     1     0     0
SMALL
abcg2


@<TRIPOS>ATOM
      1 N1           7.7160     0.6160    21.2060 ns         1 LSF      -0.142000
      2 C4           7.0970     1.6650    19.0620 ca         1 LSF       0.317900
      3 C5           7.0090     0.6250    19.9930 ca         1 LSF      -0.074000
      4 C6           8.4900     1.5900    21.7640 c          1 LSF       0.607100
      5 C7           9.1790     1.1730    23.0570 c3         1 LSF      -0.112100
      6 C8          10.5620     0.6380    22.7570 ca         1 LSF      -0.055300
      7 C10         12.0640    -1.2060    22.3670 ca         1 LSF      -0.075000
      8 C13         13.7710     3.2410    21.8520 cy         1 LSF       0.321700
      9 C15         14.8530     4.7110    22.8580 c          1 LSF       0.573000
     10 N            6.4310     1.6660    17.9040 nb         1 LSF      -0.642000
     11 N2          13.7370     3.9730    23.1180 ns         1 LSF      -0.558900
     12 C1           6.1810    -0.4760    19.7030 ca         1 LSF      -0.095300
     13 C11         13.1070    -0.3250    22.1310 ca         1 LSF      -0.126000
     14 C2           5.5000    -0.4530    18.4940 ca         1 LSF      -0.138000
     15 C16         11.6110     1.5320    22.5260 ca         1 LSF      -0.169000
     16 C9          10.7900    -0.7310    22.6750 ca         1 LSF      -0.137000
     17 C12         12.8770     1.0500    22.2060 ca         1 LSF       0.139100
     18 C14         15.0840     3.9830    21.5270 cy         1 LSF      -0.176400
     19 C            6.0370    -1.6280    20.6540 c3         1 LSF      -0.052800
     20 O            8.6670     2.6960    21.2690 o          1 LSF      -0.580100
     21 O2          15.3910     5.6140    23.4600 o          1 LSF      -0.509000
     22 C3           5.6470     0.6230    17.6300 ca         1 LSF       0.310900
     23 H1           7.6330    -0.2300    21.7470 hn         1 LSF       0.151000
     24 H2           7.7260     2.5160    19.2690 h4         1 LSF       0.054100
     25 H3           9.2420     2.0610    23.6840 hc         1 LSF       0.073200
     26 H4           8.5930     0.4170    23.5800 hc         1 LSF       0.073200
     27 H5          12.2440    -2.2720    22.3100 ha         1 LSF       0.120000
     28 H6          12.9250     3.4530    21.1980 h2         1 LSF       0.073700
     29 H7          13.0150     4.0790    23.8180 hn         1 LSF       0.333500
     30 H8          14.1000    -0.6800    21.8890 ha         1 LSF       0.133000
     31 H9           4.8510    -1.2770    18.2260 ha         1 LSF       0.121000
     32 H10         11.4160     2.5920    22.6030 ha         1 LSF       0.126000
     33 H11          9.9780    -1.4250    22.8520 ha         1 LSF       0.110000
     34 H12         15.9610     3.3390    21.5040 hc         1 LSF       0.094700
     35 H13         15.0530     4.6270    20.6510 hc         1 LSF       0.094700
     36 H14          6.9930    -2.1380    20.8080 hc         1 LSF       0.046033
     37 H15          5.6850    -1.2930    21.6340 hc         1 LSF       0.046033
     38 H16          5.3250    -2.3550    20.2680 hc         1 LSF       0.046033
     39 H17          5.1160     0.6450    16.6840 h4         1 LSF       0.022100
     40 O1          13.9640     1.8510    21.9650 os         1 LSF      -0.347100
@<TRIPOS>BOND
     1     1     3 1   
     2     1     4 1   
     3     1    23 1   
     4     2     3 ar  
     5     2    10 ar  
     6     2    24 1   
     7     3    12 ar  
     8     4     5 1   
     9     4    20 2   
    10     5     6 1   
    11     5    25 1   
    12     5    26 1   
    13     6    15 ar  
    14     6    16 ar  
    15     7    13 ar  
    16     7    16 ar  
    17     7    27 1   
    18     8    11 1   
    19     8    18 1   
    20     8    28 1   
    21     8    40 1   
    22     9    11 1   
    23     9    18 1   
    24     9    21 2   
    25    10    22 ar  
    26    11    29 1   
    27    12    14 ar  
    28    12    19 1   
    29    13    17 ar  
    30    13    30 1   
    31    14    22 ar  
    32    14    31 1   
    33    15    17 ar  
    34    15    32 1   
    35    16    33 1   
    36    17    40 1   
    37    18    34 1   
    38    18    35 1   
    39    19    36 1   
    40    19    37 1   
    41    19    38 1   
    42    22    39 1   
@<TRIPOS>SUBSTRUCTURE
     1 LSF         1 TEMP              0 ****  ****    0 ROOT
