@<TRIPOS>MOLECULE
LSF
   40    42     1     0     0
SMALL
No Charge or Current Charge


@<TRIPOS>ATOM
      1 N1           7.5700     0.7310    21.0060 ns         1 LSF      -0.142000
      2 C4           6.5290     1.5350    18.8780 ca         1 LSF       0.317900
      3 C5           6.7110     0.5480    19.8810 ca         1 LSF      -0.074000
      4 C6           8.4730     1.7340    21.3340 c          1 LSF       0.607100
      5 C7           9.1930     1.5210    22.6700 c3         1 LSF      -0.112100
      6 C8          10.5750     0.9190    22.4430 ca         1 LSF      -0.055300
      7 C10         12.0100    -1.0360    22.1800 ca         1 LSF      -0.075000
      8 C13         14.1380     3.3730    22.1240 cy         1 LSF       0.321700
      9 C15         15.2700     4.2940    23.4840 c          1 LSF       0.573000
     10 N            5.7120     1.3710    17.8090 nb         1 LSF      -0.642000
     11 N2          14.1000     3.6500    23.4820 ns         1 LSF      -0.558900
     12 C1           5.9980    -0.6670    19.7590 ca         1 LSF      -0.095300
     13 C11         13.1230    -0.1980    22.0070 ca         1 LSF      -0.126000
     14 C2           5.1530    -0.8290    18.6450 ca         1 LSF      -0.138000
     15 C16         11.6950     1.7560    22.2680 ca         1 LSF      -0.169000
     16 C9          10.7390    -0.4780    22.3980 ca         1 LSF      -0.137000
     17 C12         12.9750     1.1980    22.0530 ca         1 LSF       0.139100
     18 C14         15.5910     4.0090    21.9570 cy         1 LSF      -0.176400
     19 C            6.1300    -1.7840    20.7900 c3         1 LSF      -0.052800
     20 O            8.7090     2.7030    20.6210 o          1 LSF      -0.580100
     21 O2          15.7200     4.9270    24.4240 o          1 LSF      -0.509000
     22 C3           5.0410     0.2040    17.7020 ca         1 LSF       0.310900
     23 H1           7.5110    -0.0120    21.6900 hn         1 LSF       0.151000
     24 H2           7.0360     2.4960    18.9190 h4         1 LSF       0.054100
     25 H3           9.2890     2.4890    23.1760 hc         1 LSF       0.073200
     26 H4           8.6090     0.8390    23.3000 hc         1 LSF       0.073200
     27 H5          12.1310    -2.1170    22.1440 ha         1 LSF       0.120000
     28 H6          13.3490     3.8560    21.5340 h2         1 LSF       0.073700
     29 H7          13.3120     4.0430    23.9800 hn         1 LSF       0.333500
     30 H8          14.1060    -0.6300    21.8360 ha         1 LSF       0.133000
     31 H9           4.5850    -1.7440    18.5040 ha         1 LSF       0.121000
     32 H10         11.5540     2.8320    22.2950 ha         1 LSF       0.126000
     33 H11          9.8830    -1.1360    22.5300 ha         1 LSF       0.110000
     34 H12         16.4350     3.3260    21.8340 hc         1 LSF       0.094700
     35 H13         15.6790     4.9270    21.3710 hc         1 LSF       0.094700
     36 H14          7.1690    -2.1230    20.8750 hc         1 LSF       0.046033
     37 H15          5.8000    -1.4480    21.7800 hc         1 LSF       0.046033
     38 H16          5.5230    -2.6570    20.5220 hc         1 LSF       0.046033
     39 H17          4.3910     0.0950    16.8340 h4         1 LSF       0.022100
     40 O1          14.1040     1.9710    21.8680 os         1 LSF      -0.347100
@<TRIPOS>BOND
     1     1     3 1   
     2     1     4 1   
     3     1    23 1   
     4     2     3 ar  
     5     2    10 ar  
     6     2    24 1   
     7     3    12 ar  
     8     4     5 1   
     9     4    20 2   
    10     5     6 1   
    11     5    25 1   
    12     5    26 1   
    13     6    15 ar  
    14     6    16 ar  
    15     7    13 ar  
    16     7    16 ar  
    17     7    27 1   
    18     8    11 1   
    19     8    18 1   
    20     8    28 1   
    21     8    40 1   
    22     9    11 1   
    23     9    18 1   
    24     9    21 2   
    25    10    22 ar  
    26    11    29 1   
    27    12    14 ar  
    28    12    19 1   
    29    13    17 ar  
    30    13    30 1   
    31    14    22 ar  
    32    14    31 1   
    33    15    17 ar  
    34    15    32 1   
    35    16    33 1   
    36    17    40 1   
    37    18    34 1   
    38    18    35 1   
    39    19    36 1   
    40    19    37 1   
    41    19    38 1   
    42    22    39 1   
@<TRIPOS>SUBSTRUCTURE
     1 LSF         1 TEMP              0 ****  ****    0 ROOT
