@<TRIPOS>MOLECULE
LSG
   42    43     1     0     0
SMALL
abcg2


@<TRIPOS>ATOM
      1 C1          35.8180    27.8220    43.6110 ca         1 LSG      -0.090000
      2 C2          36.7000    27.2830    42.6800 ca         1 LSG       0.190000
      3 C3          36.2370    26.7790    41.4730 ca         1 LSG      -0.064000
      4 C4          34.8760    26.8120    41.1900 ca         1 LSG      -0.146000
      5 C5          33.9610    27.3290    42.1070 ca         1 LSG       0.264000
      6 C6          34.4740    27.8290    43.3050 ca         1 LSG       0.134000
      7 F7          33.6020    28.3500    44.2020 f          1 LSG      -0.171000
      8 I8          38.7660    27.2420    43.1150 i          1 LSG      -0.299000
      9 N9          32.5760    27.3840    41.8940 nu         1 LSG      -0.950000
     10 C10         31.9450    26.8090    40.8160 cc         1 LSG       0.291000
     11 N11         32.0480    25.4970    40.4930 na         1 LSG       0.044000
     12 C12         31.2490    25.2470    39.3670 cc         1 LSG      -0.276600
     13 C13         30.6270    26.4350    39.0250 cd         1 LSG      -0.060000
     14 C14         31.0560    27.4330    39.9240 cd         1 LSG      -0.298600
     15 C15         30.7190    28.8530    40.0020 c          1 LSG       0.643700
     16 O16         31.0180    29.5560    40.9720 o          1 LSG      -0.606100
     17 N17         29.9980    29.3400    38.9480 ns         1 LSG      -0.355400
     18 O18         29.8240    30.7120    38.8560 os         1 LSG      -0.251100
     19 C19         28.5220    31.0910    39.3350 c3         1 LSG       0.140600
     20 C20         28.4580    32.6010    39.2420 c3         1 LSG       0.155600
     21 O21         27.1630    32.9850    39.6990 oh         1 LSG      -0.666000
     22 C22         32.6960    24.4940    41.3300 c3         1 LSG       0.054900
     23 C23         31.1830    23.9740    38.6770 c          1 LSG       0.604700
     24 O24         31.9030    23.0210    38.9750 o          1 LSG      -0.547100
     25 C25         30.1840    23.8630    37.5470 c3         1 LSG      -0.184100
     26 H1          36.1480    28.2260    44.5580 ha         1 LSG       0.148000
     27 H3          36.9220    26.3700    40.7430 ha         1 LSG       0.134000
     28 H4          34.5250    26.4380    40.2380 ha         1 LSG       0.130000
     29 HN9         32.1390    28.2680    42.1390 hn         1 LSG       0.539000
     30 H13         29.9480    26.5600    38.1980 ha         1 LSG       0.135000
     31 HN17        30.0360    28.8970    38.0410 hn         1 LSG       0.328500
     32 H19         27.7520    30.6290    38.7120 h1         1 LSG       0.055700
     33 H19A        28.4000    30.7610    40.3690 h1         1 LSG       0.055700
     34 H20         29.2430    33.0430    39.8640 h1         1 LSG       0.035700
     35 H20A        28.6190    32.9150    38.2060 h1         1 LSG       0.035700
     36 HO21        27.1070    33.9480    39.6760 ho         1 LSG       0.448000
     37 H22         32.0760    23.6040    41.3620 h1         1 LSG       0.068700
     38 H22A        33.6780    24.2290    40.9410 h1         1 LSG       0.068700
     39 H22B        32.8020    24.9020    42.3320 h1         1 LSG       0.068700
     40 H25         30.2360    22.8600    37.1280 hc         1 LSG       0.064033
     41 H25A        29.1710    24.0570    37.9050 hc         1 LSG       0.064033
     42 H25B        30.4020    24.5930    36.7660 hc         1 LSG       0.064033
@<TRIPOS>BOND
     1     1     2 ar  
     2     1     6 ar  
     3     1    26 1   
     4     2     3 ar  
     5     2     8 1   
     6     3     4 ar  
     7     3    27 1   
     8     4     5 ar  
     9     4    28 1   
    10     5     6 ar  
    11     5     9 1   
    12     6     7 1   
    13     9    10 1   
    14     9    29 1   
    15    10    11 1   
    16    10    14 2   
    17    11    12 1   
    18    11    22 1   
    19    12    13 2   
    20    12    23 1   
    21    13    14 1   
    22    13    30 1   
    23    14    15 1   
    24    15    16 2   
    25    15    17 1   
    26    17    18 1   
    27    17    31 1   
    28    18    19 1   
    29    19    20 1   
    30    19    32 1   
    31    19    33 1   
    32    20    21 1   
    33    20    34 1   
    34    20    35 1   
    35    21    36 1   
    36    22    37 1   
    37    22    38 1   
    38    22    39 1   
    39    23    24 2   
    40    23    25 1   
    41    25    40 1   
    42    25    41 1   
    43    25    42 1   
@<TRIPOS>SUBSTRUCTURE
     1 LSG         1 TEMP              0 ****  ****    0 ROOT
