@<TRIPOS>MOLECULE
LSG
   42    43     1     0     0
SMALL
No Charge or Current Charge


@<TRIPOS>ATOM
      1 C1          35.8950    27.8570    43.7800 ca         1 LSG      -0.090000
      2 C2          36.8230    27.1520    42.9990 ca         1 LSG       0.190000
      3 C3          36.4270    26.5820    41.7780 ca         1 LSG      -0.064000
      4 C4          35.0960    26.7080    41.3380 ca         1 LSG      -0.146000
      5 C5          34.1470    27.3950    42.1210 ca         1 LSG       0.264000
      6 C6          34.5670    27.9840    43.3410 ca         1 LSG       0.134000
      7 F7          33.6870    28.6770    44.1050 f          1 LSG      -0.171000
      8 I8          38.8720    26.9580    43.6700 i          1 LSG      -0.299000
      9 N9          32.8220    27.5320    41.6760 nu         1 LSG      -0.950000
     10 C10         32.0770    26.8990    40.7030 cc         1 LSG       0.291000
     11 N11         32.0700    25.5180    40.4340 na         1 LSG       0.044000
     12 C12         31.2540    25.2570    39.3200 cc         1 LSG      -0.276600
     13 C13         30.7130    26.4700    38.9660 cd         1 LSG      -0.060000
     14 C14         31.2060    27.4810    39.8280 cd         1 LSG      -0.298600
     15 C15         30.8830    28.9300    39.8330 c          1 LSG       0.643700
     16 O16         31.3250    29.7280    40.6540 o          1 LSG      -0.606100
     17 N17         30.0080    29.3000    38.8250 ns         1 LSG      -0.355400
     18 O18         29.6670    30.6920    38.6770 os         1 LSG      -0.251100
     19 C19         28.4650    31.0200    39.4000 c3         1 LSG       0.140600
     20 C20         28.1790    32.5250    39.1940 c3         1 LSG       0.155600
     21 O21         26.9800    32.9110    39.8870 oh         1 LSG      -0.666000
     22 C22         32.7420    24.4850    41.2430 c3         1 LSG       0.054900
     23 C23         30.9670    23.9710    38.6280 c          1 LSG       0.604700
     24 O24         31.4780    22.9160    38.9820 o          1 LSG      -0.547100
     25 C25         30.0080    23.9850    37.4380 c3         1 LSG      -0.184100
     26 H1          36.2040    28.3060    44.7190 ha         1 LSG       0.148000
     27 H3          37.1550    26.0490    41.1710 ha         1 LSG       0.134000
     28 H4          34.8120    26.2840    40.3790 ha         1 LSG       0.130000
     29 HN9         32.4110    28.4440    41.9100 hn         1 LSG       0.539000
     30 H13         30.0120    26.6300    38.1520 ha         1 LSG       0.135000
     31 HN17        29.6720    28.6590    38.1160 hn         1 LSG       0.328500
     32 H19         27.6160    30.4320    39.0260 h1         1 LSG       0.055700
     33 H19A        28.5880    30.8160    40.4710 h1         1 LSG       0.055700
     34 H20         29.0360    33.1030    39.5640 h1         1 LSG       0.035700
     35 H20A        28.0770    32.7240    38.1180 h1         1 LSG       0.035700
     36 HO21        26.8500    33.8730    39.7230 ho         1 LSG       0.448000
     37 H22         32.0500    23.6570    41.4310 h1         1 LSG       0.068700
     38 H22A        33.6200    24.1100    40.7050 h1         1 LSG       0.068700
     39 H22B        33.0540    24.8980    42.2090 h1         1 LSG       0.068700
     40 H25         29.8670    22.9920    36.9990 hc         1 LSG       0.064033
     41 H25A        29.0550    24.4240    37.7540 hc         1 LSG       0.064033
     42 H25B        30.3700    24.7050    36.6960 hc         1 LSG       0.064033
@<TRIPOS>BOND
     1     1     2 ar  
     2     1     6 ar  
     3     1    26 1   
     4     2     3 ar  
     5     2     8 1   
     6     3     4 ar  
     7     3    27 1   
     8     4     5 ar  
     9     4    28 1   
    10     5     6 ar  
    11     5     9 1   
    12     6     7 1   
    13     9    10 1   
    14     9    29 1   
    15    10    11 1   
    16    10    14 2   
    17    11    12 1   
    18    11    22 1   
    19    12    13 2   
    20    12    23 1   
    21    13    14 1   
    22    13    30 1   
    23    14    15 1   
    24    15    16 2   
    25    15    17 1   
    26    17    18 1   
    27    17    31 1   
    28    18    19 1   
    29    19    20 1   
    30    19    32 1   
    31    19    33 1   
    32    20    21 1   
    33    20    34 1   
    34    20    35 1   
    35    21    36 1   
    36    22    37 1   
    37    22    38 1   
    38    22    39 1   
    39    23    24 2   
    40    23    25 1   
    41    25    40 1   
    42    25    41 1   
    43    25    42 1   
@<TRIPOS>SUBSTRUCTURE
     1 LSG         1 TEMP              0 ****  ****    0 ROOT
