@<TRIPOS>MOLECULE
LSK
   82    86     1     0     0
SMALL
No Charge or Current Charge


@<TRIPOS>ATOM
      1 C20         -2.5310    -1.0970     7.3790 c5         1 LSK       0.144300
      2 C19         -1.9240    -1.0800     8.8350 c5         1 LSK       0.116300
      3 C18         -0.4000    -0.7930     8.9250 c3         1 LSK       0.216800
      4 C17          1.2040     0.9900     8.2680 c2         1 LSK       0.815100
      5 C21         -3.6520    -0.0070     7.4640 c5         1 LSK       0.143300
      6 C16         -0.8820     4.9310     6.2160 c3         1 LSK      -0.071400
      7 C4          -8.9710     2.2030     8.0260 ca         1 LSK      -0.013000
      8 C14         -3.1720     4.7470     5.0140 c3         1 LSK       0.107000
      9 C15         -2.1590     4.0920     5.9740 c3         1 LSK      -0.110400
     10 C3          -9.5860     2.8430     9.1270 ca         1 LSK       0.143100
     11 C8          -7.2880     2.1460     6.2400 ca         1 LSK      -0.025000
     12 N9          -8.2250     1.2760    11.7840 nb         1 LSK      -0.273000
     13 C2         -10.6500     2.2230     9.8010 ca         1 LSK      -0.157000
     14 N7          -5.3280     3.1000    10.3250 nc         1 LSK      -0.533100
     15 C5          -9.4490     0.9410     7.6090 ca         1 LSK      -0.057000
     16 C10         -8.8590     0.2980     6.5060 ca         1 LSK      -0.069000
     17 C13         -5.3070     3.7100     5.8270 c          1 LSK       0.642100
     18 C6         -10.5150     0.3250     8.2910 ca         1 LSK      -0.062000
     19 C1         -11.1270     0.9560     9.3970 ca         1 LSK      -0.108600
     20 C11        -12.2680     0.3010    10.1480 c          1 LSK       0.605700
     21 C12        -13.6880    -1.6450    10.3070 c3         1 LSK       0.153900
     22 C22         -3.9970    -0.0880     8.9790 c5         1 LSK       0.268300
     23 C23         -4.4580     2.3550     9.6150 cd         1 LSK       0.421700
     24 C24         -6.2650     2.1530    10.7140 ca         1 LSK      -0.073600
     25 C25         -7.4280     2.3150    11.4940 ca         1 LSK       0.402900
     26 C26         -7.8490     0.0800    11.2720 ca         1 LSK       0.176900
     27 C27         -5.9670     0.8960    10.2520 ca         1 LSK       0.132500
     28 C28          0.0250     4.3470     7.3260 c3         1 LSK      -0.091400
     29 C29          0.6640     2.9870     6.9690 c3         1 LSK       0.221800
     30 C7          -7.8860     2.7950     7.3420 ca         1 LSK      -0.114000
     31 C9          -7.7930     0.9020     5.8230 ca         1 LSK      -0.149000
     32 N1          -6.1940     2.6920     5.5180 ns         1 LSK      -0.171000
     33 N10         -6.7530    -0.1680    10.5160 nb         1 LSK      -0.196000
     34 N2          -4.3550     3.8970     4.8530 ns         1 LSK      -0.511900
     35 N3           1.1480     2.3120     8.1800 nu         1 LSK      -0.966400
     36 N4          -0.0350     0.5410     8.4180 nu         1 LSK      -0.907400
     37 N5           2.1980     0.4330     8.7780 n2         1 LSK      -0.897100
     38 N6          -4.7960     0.9910     9.5470 na         1 LSK      -0.286300
     39 N8          -7.8290     3.5320    11.9690 nv         1 LSK      -1.048900
     40 O2         -12.6140    -0.9360     9.6620 os         1 LSK      -0.442100
     41 O3         -12.8280     0.8300    11.1010 o          1 LSK      -0.490000
     42 O4          -5.3220     4.3610     6.8610 o          1 LSK      -0.608100
     43 O5          -3.1310    -2.3590     7.0640 oh         1 LSK      -0.690000
     44 O6          -4.7540    -0.3120     6.5850 oh         1 LSK      -0.677000
     45 O7          -2.6920    -0.0930     9.5720 os         1 LSK      -0.460000
     46 H1          -1.7810    -0.8240     6.6220 h1         1 LSK       0.068700
     47 H2          -2.0960    -2.0560     9.3110 h1         1 LSK       0.069700
     48 H3          -0.0890    -0.8940     9.9740 h1         1 LSK       0.066700
     49 H4           0.1290    -1.5690     8.3530 h1         1 LSK       0.066700
     50 H5          -3.2390     0.9830     7.2240 h1         1 LSK       0.038700
     51 H6          -0.3140     5.0210     5.2810 hc         1 LSK       0.046700
     52 H7          -1.1760     5.9470     6.5080 hc         1 LSK       0.046700
     53 H8          -2.7070     4.9010     4.0310 h1         1 LSK       0.062700
     54 H9          -3.4810     5.7260     5.4050 h1         1 LSK       0.062700
     55 H10         -2.6460     3.9090     6.9400 hc         1 LSK       0.041200
     56 H11         -1.8890     3.1120     5.5650 hc         1 LSK       0.041200
     57 H12        -11.1030     2.7280    10.6500 ha         1 LSK       0.138000
     58 H13         -9.2280    -0.6700     6.1750 ha         1 LSK       0.117000
     59 H14        -10.8630    -0.6490     7.9540 ha         1 LSK       0.130000
     60 H15         -8.7270     3.8990    10.4750 ho         1 LSK       0.487000
     61 H16        -13.8550    -2.6130     9.8180 h1         1 LSK       0.047033
     62 H17        -13.4540    -1.8330    11.3630 h1         1 LSK       0.047033
     63 H18        -14.6230    -1.0720    10.2550 h1         1 LSK       0.047033
     64 H19         -4.5170    -1.0290     9.2050 h2         1 LSK       0.115700
     65 H20         -3.5550     2.7270     9.1460 h5         1 LSK       0.064800
     66 H21         -8.4920    -0.7700    11.4930 h5         1 LSK       0.053100
     67 H22          0.8230     5.0630     7.5580 hc         1 LSK       0.048700
     68 H23         -0.5740     4.2390     8.2390 hc         1 LSK       0.048700
     69 H24         -0.0840     2.3520     6.4790 h1         1 LSK       0.042700
     70 H25          1.4840     3.1350     6.2540 h1         1 LSK       0.042700
     71 H26         -7.5260     3.7650     7.6670 ha         1 LSK       0.171000
     72 H27         -7.3520     0.3930     4.9680 ha         1 LSK       0.109000
     73 H28         -6.0220     2.2410     4.6290 hn         1 LSK       0.146000
     74 H29         -4.4230     3.3210     4.0230 hn         1 LSK       0.304500
     75 H30          1.8860     2.7860     8.6860 hn         1 LSK       0.476000
     76 H31         -0.6540     1.3060     8.6420 hn         1 LSK       0.477000
     77 H32          2.9760     1.0960     8.7270 hn         1 LSK       0.378400
     78 H33         -8.4290     3.5070    12.7920 hn         1 LSK       0.485000
     79 H34         -7.0940     4.2370    12.0190 hn         1 LSK       0.485000
     80 H35         -3.9710    -2.0960     6.6070 ho         1 LSK       0.506000
     81 H36         -5.4700     0.3380     6.7750 ho         1 LSK       0.514000
     82 O1          -9.1450     4.0530     9.5830 oh         1 LSK      -0.548100
@<TRIPOS>BOND
     1     1     2 1   
     2     1     5 1   
     3     1    43 1   
     4     1    46 1   
     5     2     3 1   
     6     2    45 1   
     7     2    47 1   
     8     3    36 1   
     9     3    48 1   
    10     3    49 1   
    11     4    35 1   
    12     4    36 1   
    13     4    37 2   
    14     5    22 1   
    15     5    44 1   
    16     5    50 1   
    17     6     9 1   
    18     6    28 1   
    19     6    51 1   
    20     6    52 1   
    21     7    10 ar  
    22     7    15 ar  
    23     7    30 ar  
    24     8     9 1   
    25     8    34 1   
    26     8    53 1   
    27     8    54 1   
    28     9    55 1   
    29     9    56 1   
    30    10    13 ar  
    31    10    82 1   
    32    11    30 ar  
    33    11    31 ar  
    34    11    32 1   
    35    12    25 ar  
    36    12    26 ar  
    37    13    19 ar  
    38    13    57 1   
    39    14    23 2   
    40    14    24 1   
    41    15    16 ar  
    42    15    18 ar  
    43    16    31 ar  
    44    16    58 1   
    45    17    32 1   
    46    17    34 1   
    47    17    42 2   
    48    18    19 ar  
    49    18    59 1   
    50    19    20 1   
    51    20    40 1   
    52    20    41 2   
    53    21    40 1   
    54    21    61 1   
    55    21    62 1   
    56    21    63 1   
    57    22    38 1   
    58    22    45 1   
    59    22    64 1   
    60    23    38 1   
    61    23    65 1   
    62    24    25 ar  
    63    24    27 ar  
    64    25    39 1   
    65    26    33 ar  
    66    26    66 1   
    67    27    33 ar  
    68    27    38 1   
    69    28    29 1   
    70    28    67 1   
    71    28    68 1   
    72    29    35 1   
    73    29    69 1   
    74    29    70 1   
    75    30    71 1   
    76    31    72 1   
    77    32    73 1   
    78    34    74 1   
    79    35    75 1   
    80    36    76 1   
    81    37    77 1   
    82    39    78 1   
    83    39    79 1   
    84    43    80 1   
    85    44    81 1   
    86    60    82 1   
@<TRIPOS>SUBSTRUCTURE
     1 LSK         1 TEMP              0 ****  ****    0 ROOT
