@<TRIPOS>MOLECULE
LSK
   82    86     1     0     0
SMALL
bcc


@<TRIPOS>ATOM
      1 C20         -2.2940    -0.9190     7.5050 c5         1 LSK       0.121100
      2 C19         -1.7880    -1.0140     8.9670 c5         1 LSK       0.093100
      3 C18         -0.3560    -0.5800     9.1930 c3         1 LSK       0.216800
      4 C17          1.2280     1.0960     8.4070 c2         1 LSK       0.815100
      5 C21         -3.3530     0.1800     7.5960 c5         1 LSK       0.120100
      6 C16         -1.2270     4.8000     6.4340 c3         1 LSK      -0.071400
      7 C4          -9.0360     2.1920     7.9020 ca         1 LSK      -0.013000
      8 C14         -3.3660     4.6460     5.0830 c3         1 LSK       0.107000
      9 C15         -2.4020     3.9250     6.0200 c3         1 LSK      -0.110400
     10 C3          -9.4790     2.7200     9.1490 ca         1 LSK       0.143100
     11 C8          -7.5060     2.2170     6.0330 ca         1 LSK       0.067600
     12 N9          -7.8350     1.0110    11.9890 nb         1 LSK      -0.799000
     13 C2         -10.5040     2.1190     9.8300 ca         1 LSK      -0.175000
     14 N7          -5.2180     3.0250    10.3540 nc         1 LSK      -0.533100
     15 C5          -9.7120     1.0690     7.3700 ca         1 LSK      -0.057000
     16 C10         -9.2660     0.5570     6.1290 ca         1 LSK      -0.087000
     17 C13         -5.5160     3.6610     5.6470 c          1 LSK       0.776100
     18 C6         -10.7760     0.4760     8.0780 ca         1 LSK      -0.080000
     19 C1         -11.1570     0.9850     9.2960 ca         1 LSK      -0.108600
     20 C11        -12.2550     0.3860    10.0910 c          1 LSK       0.654700
     21 C12        -13.9010    -1.2930    10.1640 c3         1 LSK       0.130700
     22 C22         -3.8540    -0.0500     9.0240 c5         1 LSK       0.215800
     23 C23         -4.3720     2.3470     9.6390 cd         1 LSK       0.421700
     24 C24         -6.0900     2.0820    10.8400 ca         1 LSK      -0.204200
     25 C25         -7.2040     2.1430    11.6900 ca         1 LSK       0.731200
     26 C26         -7.3970    -0.1350    11.4730 ca         1 LSK       0.702900
     27 C27         -5.7420     0.8160    10.3890 ca         1 LSK       0.460800
     28 C28         -0.3030     4.1350     7.4500 c3         1 LSK      -0.091400
     29 C29          0.3970     2.9000     6.8930 c3         1 LSK       0.221800
     30 C7          -7.9370     2.7560     7.2260 ca         1 LSK      -0.132000
     31 C9          -8.2030     1.1100     5.4810 ca         1 LSK      -0.167000
     32 N1          -6.4050     2.6620     5.3100 ns         1 LSK      -0.497100
     33 N10         -6.3630    -0.3210    10.6720 nb         1 LSK      -0.722000
     34 N2          -4.5240     3.8460     4.7440 ns         1 LSK      -0.578900
     35 N3           1.3610     2.3240     7.8120 nu         1 LSK      -0.911200
     36 N4          -0.0770     0.7130     8.6220 nu         1 LSK      -0.852200
     37 N5           2.1930     0.3270     8.7580 n2         1 LSK      -0.897100
     38 N6          -4.6350     1.0020     9.6070 na         1 LSK      -0.257000
     39 N8          -7.7030     3.3100    12.1750 nv         1 LSK      -0.938500
     40 O2         -12.8370    -0.6360     9.4810 os         1 LSK      -0.418900
     41 O3         -12.5890     0.7850    11.1820 o          1 LSK      -0.539000
     42 O4          -5.6170     4.3290     6.6650 o          1 LSK      -0.608100
     43 O5          -2.9230    -2.1010     7.0810 oh         1 LSK      -0.567800
     44 O6          -4.3230     0.0750     6.6060 oh         1 LSK      -0.554800
     45 O7          -2.6720    -0.2130     9.7590 os         1 LSK      -0.413600
     46 H1          -1.4830    -0.6350     6.8250 h1         1 LSK       0.068700
     47 H2          -1.8680    -2.0580     9.2940 h1         1 LSK       0.069700
     48 H3          -0.1280    -0.6290    10.2650 h1         1 LSK       0.066700
     49 H4           0.2900    -1.3140     8.7110 h1         1 LSK       0.066700
     50 H5          -2.8280     1.1460     7.5600 h1         1 LSK       0.038700
     51 H6          -0.6490     5.0900     5.5500 hc         1 LSK       0.046700
     52 H7          -1.6110     5.7300     6.8630 hc         1 LSK       0.046700
     53 H8          -2.8620     4.9040     4.1510 h1         1 LSK       0.062700
     54 H9          -3.6970     5.5840     5.5300 h1         1 LSK       0.062700
     55 H10         -2.9440     3.6080     6.9160 hc         1 LSK       0.041200
     56 H11         -2.0560     3.0130     5.5260 hc         1 LSK       0.041200
     57 H12        -10.8240     2.5240    10.7820 ha         1 LSK       0.156000
     58 H13         -9.7770    -0.2940     5.6970 ha         1 LSK       0.135000
     59 H14        -11.2680    -0.3850     7.6470 ha         1 LSK       0.148000
     60 H15         -8.8040     3.8380    10.5640 ho         1 LSK       0.448000
     61 H16        -14.2360    -2.0850     9.5010 h1         1 LSK       0.047033
     62 H17        -13.5630    -1.7290    11.1040 h1         1 LSK       0.047033
     63 H18        -14.7300    -0.6130    10.3620 h1         1 LSK       0.047033
     64 H19         -4.4820    -0.9490     9.0530 h2         1 LSK       0.115700
     65 H20         -3.5310     2.7730     9.1100 h5         1 LSK       0.064800
     66 H21         -7.9570    -1.0210    11.7510 h5         1 LSK       0.053100
     67 H22          0.4550     4.8520     7.7750 hc         1 LSK       0.048700
     68 H23         -0.8730     3.8600     8.3440 hc         1 LSK       0.048700
     69 H24         -0.3320     2.1360     6.6230 h1         1 LSK       0.042700
     70 H25          0.9170     3.1700     5.9690 h1         1 LSK       0.042700
     71 H26         -7.4240     3.5950     7.6600 ha         1 LSK       0.189000
     72 H27         -7.8750     0.6890     4.5370 ha         1 LSK       0.127000
     73 H28         -6.2480     2.1800     4.4370 hn         1 LSK       0.312500
     74 H29         -4.4040     3.1810     3.9950 hn         1 LSK       0.304500
     75 H30          2.3140     2.6210     7.6800 hn         1 LSK       0.420800
     76 H31         -0.7060     1.4510     8.9020 hn         1 LSK       0.421800
     77 H32          3.0770     0.6820     8.4100 hn         1 LSK       0.378400
     78 H33         -8.3160     3.2290    12.9730 hn         1 LSK       0.429800
     79 H34         -7.0740     4.0980    12.2190 hn         1 LSK       0.429800
     80 H35         -2.2500    -2.7820     6.9810 ho         1 LSK       0.407000
     81 H36         -4.8410     0.8860     6.5950 ho         1 LSK       0.415000
     82 O1          -8.8440     3.8210     9.5910 oh         1 LSK      -0.509100
@<TRIPOS>BOND
     1     1     2 1   
     2     1     5 1   
     3     1    43 1   
     4     1    46 1   
     5     2     3 1   
     6     2    45 1   
     7     2    47 1   
     8     3    36 1   
     9     3    48 1   
    10     3    49 1   
    11     4    35 1   
    12     4    36 1   
    13     4    37 2   
    14     5    22 1   
    15     5    44 1   
    16     5    50 1   
    17     6     9 1   
    18     6    28 1   
    19     6    51 1   
    20     6    52 1   
    21     7    10 ar  
    22     7    15 ar  
    23     7    30 ar  
    24     8     9 1   
    25     8    34 1   
    26     8    53 1   
    27     8    54 1   
    28     9    55 1   
    29     9    56 1   
    30    10    13 ar  
    31    10    82 1   
    32    11    30 ar  
    33    11    31 ar  
    34    11    32 1   
    35    12    25 ar  
    36    12    26 ar  
    37    13    19 ar  
    38    13    57 1   
    39    14    23 2   
    40    14    24 1   
    41    15    16 ar  
    42    15    18 ar  
    43    16    31 ar  
    44    16    58 1   
    45    17    32 1   
    46    17    34 1   
    47    17    42 2   
    48    18    19 ar  
    49    18    59 1   
    50    19    20 1   
    51    20    40 1   
    52    20    41 2   
    53    21    40 1   
    54    21    61 1   
    55    21    62 1   
    56    21    63 1   
    57    22    38 1   
    58    22    45 1   
    59    22    64 1   
    60    23    38 1   
    61    23    65 1   
    62    24    25 ar  
    63    24    27 ar  
    64    25    39 1   
    65    26    33 ar  
    66    26    66 1   
    67    27    33 ar  
    68    27    38 1   
    69    28    29 1   
    70    28    67 1   
    71    28    68 1   
    72    29    35 1   
    73    29    69 1   
    74    29    70 1   
    75    30    71 1   
    76    31    72 1   
    77    32    73 1   
    78    34    74 1   
    79    35    75 1   
    80    36    76 1   
    81    37    77 1   
    82    39    78 1   
    83    39    79 1   
    84    43    80 1   
    85    44    81 1   
    86    60    82 1   
@<TRIPOS>SUBSTRUCTURE
     1 LSK         1 TEMP              0 ****  ****    0 ROOT
