@<TRIPOS>MOLECULE
LSL
   32    33     1     0     0
SMALL
No Charge or Current Charge


@<TRIPOS>ATOM
      1 C10        -51.1920     4.8540    -3.7040 cc         1 LSL      -0.245000
      2 C13        -48.9650     5.3460    -3.2710 cd         1 LSL      -0.108000
      3 C15        -47.9080    -0.5310    -7.6380 ca         1 LSL      -0.074500
      4 C02        -46.8590    -0.9520    -6.7870 ca         1 LSL      -0.156600
      5 C03        -46.6660    -0.2580    -5.5660 ca         1 LSL      -0.074500
      6 C04        -47.5020     0.8160    -5.2140 ca         1 LSL      -0.108500
      7 C05        -48.5440     1.2240    -6.0660 ca         1 LSL      -0.062300
      8 C06        -49.4480     2.3860    -5.6740 c3         1 LSL       0.198100
      9 C08        -49.6250     4.8770    -5.7270 c3         1 LSL       0.229100
     10 C09        -49.9420     5.0200    -4.2550 cd         1 LSL      -0.108300
     11 C12        -49.4560     5.4280    -1.9930 cc         1 LSL      -0.248000
     12 C14        -48.7400     0.5430    -7.2810 ca         1 LSL      -0.108500
     13 N07        -48.8140     3.6760    -6.0110 n7         1 LSL      -0.864400
     14 N17        -45.0070    -2.5250    -6.2970 ns         1 LSL      -0.394400
     15 O16        -46.1060    -2.6660    -8.2940 o          1 LSL      -0.573100
     16 O18        -44.2860    -3.7690    -6.4810 oh         1 LSL      -0.415100
     17 S11        -51.1800     5.0960    -1.9610 ss         1 LSL       0.196000
     18 H1         -52.1230     4.6040    -4.1950 h4         1 LSL       0.147000
     19 H2         -47.9190     5.5110    -3.5130 ha         1 LSL       0.141000
     20 H3         -48.0840    -1.0400    -8.5840 ha         1 LSL       0.123000
     21 H4         -45.8700    -0.5310    -4.8790 ha         1 LSL       0.123000
     22 H5         -47.3370     1.3400    -4.2750 ha         1 LSL       0.124500
     23 H6         -50.4110     2.2830    -6.1940 h1         1 LSL       0.044700
     24 H7         -49.6540     2.3240    -4.5960 h1         1 LSL       0.044700
     25 H8         -49.0850     5.7770    -6.0510 h1         1 LSL       0.039200
     26 H9         -50.5660     4.8450    -6.2930 h1         1 LSL       0.039200
     27 H10        -48.9360     5.6550    -1.0710 h4         1 LSL       0.150000
     28 H11        -49.5410     0.8460    -7.9520 ha         1 LSL       0.124500
     29 H12        -48.6090     3.6670    -7.0170 hn         1 LSL       0.414000
     30 H14        -45.0310    -2.1600    -5.3480 hn         1 LSL       0.341500
     31 H15        -43.3410    -3.5080    -6.3710 ho         1 LSL       0.439000
     32 C01        -45.9800    -2.1170    -7.2050 c          1 LSL       0.621700
@<TRIPOS>BOND
     1     1    10 2   
     2     1    17 1   
     3     1    18 1   
     4     2    10 1   
     5     2    11 2   
     6     2    19 1   
     7     3     4 ar  
     8     3    12 ar  
     9     3    20 1   
    10     4     5 ar  
    11     4    32 1   
    12     5     6 ar  
    13     5    21 1   
    14     6     7 ar  
    15     6    22 1   
    16     7     8 1   
    17     7    12 ar  
    18     8    13 1   
    19     8    23 1   
    20     8    24 1   
    21     9    10 1   
    22     9    13 1   
    23     9    25 1   
    24     9    26 1   
    25    11    17 1   
    26    11    27 1   
    27    12    28 1   
    28    13    29 1   
    29    14    16 1   
    30    14    30 1   
    31    14    32 1   
    32    15    32 2   
    33    16    31 1   
@<TRIPOS>SUBSTRUCTURE
     1 LSL         1 TEMP              0 ****  ****    0 ROOT
