@<TRIPOS>MOLECULE
LSL
   32    33     1     0     0
SMALL
bcc


@<TRIPOS>ATOM
      1 C10        -51.2070     5.1190    -3.9310 cc         1 LSL      -0.118100
      2 C13        -49.1100     4.6920    -3.0630 cd         1 LSL      -0.126000
      3 C15        -48.1050    -0.8050    -7.2660 ca         1 LSL      -0.092500
      4 C02        -46.9750    -1.0010    -6.4770 ca         1 LSL      -0.156600
      5 C03        -46.6230    -0.0190    -5.5520 ca         1 LSL      -0.092500
      6 C04        -47.3760     1.1370    -5.4320 ca         1 LSL      -0.126500
      7 C05        -48.4990     1.3440    -6.2300 ca         1 LSL      -0.062300
      8 C06        -49.3430     2.5800    -6.0780 c3         1 LSL       0.198100
      9 C08        -49.3240     4.9580    -5.6200 c3         1 LSL       0.229100
     10 C09        -49.8930     4.9270    -4.2330 cd         1 LSL      -0.108300
     11 C12        -49.8440     4.7210    -1.9190 cc         1 LSL      -0.121100
     12 C14        -48.8460     0.3590    -7.1510 ca         1 LSL      -0.126500
     13 N07        -48.5360     3.7680    -5.8930 n7         1 LSL      -0.809200
     14 N17        -44.8970    -2.1680    -6.4190 ns         1 LSL      -0.461400
     15 O16        -46.7680    -3.3300    -6.9190 o          1 LSL      -0.573100
     16 O18        -44.1120    -3.2770    -6.3580 oh         1 LSL      -0.376100
     17 S11        -51.5000     5.0290    -2.2430 ss         1 LSL      -0.093800
     18 H1         -52.0200     5.3050    -4.6170 h4         1 LSL       0.165000
     19 H2         -48.0440     4.5100    -3.0830 ha         1 LSL       0.159000
     20 H3         -48.3980    -1.5580    -7.9860 ha         1 LSL       0.141000
     21 H4         -45.7730    -0.1550    -4.8930 ha         1 LSL       0.141000
     22 H5         -47.0910     1.8870    -4.7050 ha         1 LSL       0.142500
     23 H6         -50.0330     2.6580    -6.9320 h1         1 LSL       0.044700
     24 H7         -49.9770     2.4590    -5.1940 h1         1 LSL       0.044700
     25 H8         -48.6580     5.8190    -5.7170 h1         1 LSL       0.039200
     26 H9         -50.1390     5.1120    -6.3420 h1         1 LSL       0.039200
     27 H10        -49.5010     4.5800    -0.9060 h4         1 LSL       0.168000
     28 H11        -49.7110     0.5030    -7.7890 ha         1 LSL       0.142500
     29 H12        -47.9800     3.9260    -6.7240 hn         1 LSL       0.358800
     30 H14        -44.4280    -1.2980    -6.2150 hn         1 LSL       0.341500
     31 H15        -43.7970    -3.4400    -7.2580 ho         1 LSL       0.400000
     32 C01        -46.2230    -2.2810    -6.6200 c          1 LSL       0.688700
@<TRIPOS>BOND
     1     1    10 2   
     2     1    17 1   
     3     1    18 1   
     4     2    10 1   
     5     2    11 2   
     6     2    19 1   
     7     3     4 ar  
     8     3    12 ar  
     9     3    20 1   
    10     4     5 ar  
    11     4    32 1   
    12     5     6 ar  
    13     5    21 1   
    14     6     7 ar  
    15     6    22 1   
    16     7     8 1   
    17     7    12 ar  
    18     8    13 1   
    19     8    23 1   
    20     8    24 1   
    21     9    10 1   
    22     9    13 1   
    23     9    25 1   
    24     9    26 1   
    25    11    17 1   
    26    11    27 1   
    27    12    28 1   
    28    13    29 1   
    29    14    16 1   
    30    14    30 1   
    31    14    32 1   
    32    15    32 2   
    33    16    31 1   
@<TRIPOS>SUBSTRUCTURE
     1 LSL         1 TEMP              0 ****  ****    0 ROOT
