@<TRIPOS>MOLECULE
LSM
   81    82     1     0     0
SMALL
abcg2


@<TRIPOS>ATOM
      1 SE          -0.7150    -1.6100    -1.0710 ss         1 LSM      -0.536000
      2 C1          -2.0390    -0.4190    -0.2380 c3         1 LSM       0.143600
      3 C2          -3.4420    -0.8130    -0.6750 c3         1 LSM      -0.076400
      4 C3          -4.5080     0.0390     0.0070 c3         1 LSM      -0.074400
      5 C4          -5.9180    -0.3490    -0.4190 c3         1 LSM      -0.074400
      6 C5          -7.0070     0.4520     0.2850 c3         1 LSM      -0.074400
      7 C6          -8.4120     0.0470    -0.1450 c3         1 LSM      -0.074400
      8 C7          -9.5130     0.8200     0.5690 c3         1 LSM      -0.074400
      9 C8         -10.9130     0.4030     0.1340 c3         1 LSM      -0.074400
     10 C9         -12.0220     1.1610     0.8520 c3         1 LSM      -0.074400
     11 C13          0.9040    -0.8740    -0.2660 c6         1 LSM       0.333300
     12 C1B          6.1070    -0.2550    -0.0740 c6         1 LSM       0.356300
     13 O1B          4.8380     0.2160     0.2810 os         1 LSM      -0.481000
     14 C14          1.8330    -1.9980     0.2060 c6         1 LSM       0.115300
     15 O2           1.2710    -2.7420     1.2540 oh         1 LSM      -0.726000
     16 C2B          6.9870    -0.3180     1.1790 c6         1 LSM       0.128300
     17 O2B          6.3950    -1.0350     2.2310 oh         1 LSM      -0.734000
     18 C15          3.1100    -1.3670     0.7470 c6         1 LSM       0.149300
     19 O3           4.0710    -2.3420     1.0880 oh         1 LSM      -0.735000
     20 C3B          7.3320     1.0890     1.6510 c6         1 LSM       0.128300
     21 O3B          8.2660     1.0710     2.7070 oh         1 LSM      -0.669000
     22 C16          3.7260    -0.4360    -0.2890 c6         1 LSM       0.149300
     23 O4B          8.1910     3.2170     0.8690 oh         1 LSM      -0.721000
     24 C4B          7.9520     1.8790     0.5060 c6         1 LSM       0.146300
     25 C17          2.6880     0.5980    -0.7280 c6         1 LSM       0.155300
     26 O5           1.5440    -0.0770    -1.2240 os         1 LSM      -0.415000
     27 C5B          6.9920     1.8740    -0.6820 c6         1 LSM       0.168300
     28 O5B          6.6960     0.5370    -1.0550 os         1 LSM      -0.453000
     29 C18          3.2050     1.4880    -1.8370 c3         1 LSM       0.170600
     30 O6           2.2200     2.4470    -2.1410 oh         1 LSM      -0.714000
     31 C6B          7.5810     2.5590    -1.8970 c3         1 LSM       0.169600
     32 O6B          6.6100     2.5890    -2.9150 oh         1 LSM      -0.719000
     33 H1          -1.9370    -0.5010     0.8460 h1         1 LSM       0.062200
     34 H1A         -1.8170     0.6090    -0.5270 h1         1 LSM       0.062200
     35 H2          -3.5380    -0.7140    -1.7600 hc         1 LSM       0.054700
     36 H2A         -3.6240    -1.8660    -0.4390 hc         1 LSM       0.054700
     37 H3          -4.4130    -0.0640     1.0930 hc         1 LSM       0.039700
     38 H3A         -4.3350     1.0970    -0.2180 hc         1 LSM       0.039700
     39 H4          -6.0170    -0.2230    -1.5020 hc         1 LSM       0.039700
     40 H4A         -6.0710    -1.4160    -0.2230 hc         1 LSM       0.039700
     41 H5          -6.9080     0.3240     1.3690 hc         1 LSM       0.038200
     42 H5A         -6.8610     1.5200     0.0900 hc         1 LSM       0.038200
     43 H6          -8.5130     0.1860    -1.2270 hc         1 LSM       0.037700
     44 H6A         -8.5470    -1.0260     0.0350 hc         1 LSM       0.037700
     45 H7          -9.4130     0.6790     1.6510 hc         1 LSM       0.037200
     46 H7A         -9.3820     1.8930     0.3890 hc         1 LSM       0.037200
     47 H8         -11.0140     0.5500    -0.9480 hc         1 LSM       0.037200
     48 H8A        -11.0380    -0.6720     0.3050 hc         1 LSM       0.037200
     49 H9         -11.9210     1.0140     1.9330 hc         1 LSM       0.036700
     50 H9A        -11.9000     2.2360     0.6800 hc         1 LSM       0.036700
     51 H13          0.5930    -0.2780     0.6070 h2         1 LSM       0.059700
     52 H1B          6.0310    -1.2540    -0.5190 h2         1 LSM       0.085700
     53 H14          2.0910    -2.6350    -0.6540 h1         1 LSM       0.067700
     54 HO2          0.5650    -3.2940     0.9000 ho         1 LSM       0.530000
     55 H2B          7.9230    -0.8070     0.8690 h1         1 LSM       0.064700
     56 HO2B         5.6360    -1.5430     1.9010 ho         1 LSM       0.538000
     57 H15          2.8410    -0.7650     1.6290 h1         1 LSM       0.058700
     58 HO3          3.6940    -2.9210     1.7610 ho         1 LSM       0.533000
     59 H3B          6.4090     1.6010     1.9610 h1         1 LSM       0.060700
     60 HO3B         7.8170     0.7880     3.5090 ho         1 LSM       0.465000
     61 H16          4.0280    -1.0200    -1.1710 h1         1 LSM       0.070700
     62 HO4B         8.7270     3.2180     1.6690 ho         1 LSM       0.526000
     63 H4B          8.8870     1.3800     0.2020 h1         1 LSM       0.052700
     64 H17          2.4140     1.2180     0.1400 h1         1 LSM       0.060700
     65 H5B          6.0740     2.4030    -0.3890 h1         1 LSM       0.069700
     66 H18          4.1350     1.9570    -1.5060 h1         1 LSM       0.044700
     67 H6'A         3.4530     0.8660    -2.7080 h1         1 LSM       0.044700
     68 HO6          2.6080     3.0860    -2.7450 ho         1 LSM       0.507000
     69 H6B          7.8940     3.5660    -1.6050 h1         1 LSM       0.038200
     70 H6BA         8.4860     2.0160    -2.2070 h1         1 LSM       0.038200
     71 HO6B         6.9600     3.1100    -3.6430 ho         1 LSM       0.504000
     72 C10        -13.4180     0.7360     0.4140 c3         1 LSM      -0.075400
     73 C11        -14.5330     1.4860     1.1330 c3         1 LSM      -0.075400
     74 C12        -15.9220     1.0510     0.6870 c3         1 LSM      -0.088100
     75 H10        -13.5200     0.8860    -0.6670 hc         1 LSM       0.036700
     76 H10A       -13.5390    -0.3400     0.5820 hc         1 LSM       0.036700
     77 H11        -14.4310     1.3370     2.2130 hc         1 LSM       0.036700
     78 H11A       -14.4130     2.5610     0.9640 hc         1 LSM       0.036700
     79 H12        -16.7040     1.6000     1.2130 hc         1 LSM       0.031367
     80 H12A       -16.0630     1.2200    -0.3820 hc         1 LSM       0.031367
     81 H12B       -16.0800    -0.0120     0.8750 hc         1 LSM       0.031367
@<TRIPOS>BOND
     1     1     2 1   
     2     1    11 1   
     3     2     3 1   
     4     2    33 1   
     5     2    34 1   
     6     3     4 1   
     7     3    35 1   
     8     3    36 1   
     9     4     5 1   
    10     4    37 1   
    11     4    38 1   
    12     5     6 1   
    13     5    39 1   
    14     5    40 1   
    15     6     7 1   
    16     6    41 1   
    17     6    42 1   
    18     7     8 1   
    19     7    43 1   
    20     7    44 1   
    21     8     9 1   
    22     8    45 1   
    23     8    46 1   
    24     9    10 1   
    25     9    47 1   
    26     9    48 1   
    27    10    49 1   
    28    10    50 1   
    29    10    72 1   
    30    11    14 1   
    31    11    26 1   
    32    11    51 1   
    33    12    13 1   
    34    12    16 1   
    35    12    28 1   
    36    12    52 1   
    37    13    22 1   
    38    14    15 1   
    39    14    18 1   
    40    14    53 1   
    41    15    54 1   
    42    16    17 1   
    43    16    20 1   
    44    16    55 1   
    45    17    56 1   
    46    18    19 1   
    47    18    22 1   
    48    18    57 1   
    49    19    58 1   
    50    20    21 1   
    51    20    24 1   
    52    20    59 1   
    53    21    60 1   
    54    22    25 1   
    55    22    61 1   
    56    23    24 1   
    57    23    62 1   
    58    24    27 1   
    59    24    63 1   
    60    25    26 1   
    61    25    29 1   
    62    25    64 1   
    63    27    28 1   
    64    27    31 1   
    65    27    65 1   
    66    29    30 1   
    67    29    66 1   
    68    29    67 1   
    69    30    68 1   
    70    31    32 1   
    71    31    69 1   
    72    31    70 1   
    73    32    71 1   
    74    72    73 1   
    75    72    75 1   
    76    72    76 1   
    77    73    74 1   
    78    73    77 1   
    79    73    78 1   
    80    74    79 1   
    81    74    80 1   
    82    74    81 1   
@<TRIPOS>SUBSTRUCTURE
     1 LSM         1 TEMP              0 ****  ****    0 ROOT
