@<TRIPOS>MOLECULE
LSM
   81    82     1     0     0
SMALL
No Charge or Current Charge


@<TRIPOS>ATOM
      1 SE          -0.6430    -2.3850    -0.0210 ss         1 LSM      -0.536000
      2 C1          -1.8350    -1.0110     0.3250 c3         1 LSM       0.143600
      3 C2          -3.2800    -1.4770     0.0620 c3         1 LSM      -0.076400
      4 C3          -4.3270    -0.3740     0.3320 c3         1 LSM      -0.074400
      5 C4          -5.7760    -0.8390     0.0690 c3         1 LSM      -0.074400
      6 C5          -6.8230     0.2640     0.3390 c3         1 LSM      -0.074400
      7 C6          -8.2720    -0.2010     0.0750 c3         1 LSM      -0.074400
      8 C7          -9.3190     0.9020     0.3450 c3         1 LSM      -0.074400
      9 C8         -10.7680     0.4370     0.0810 c3         1 LSM      -0.074400
     10 C9         -11.8150     1.5400     0.3500 c3         1 LSM      -0.074400
     11 C13          0.9370    -1.5600     0.4710 c6         1 LSM       0.333300
     12 C1B          5.9410     0.0210    -0.5050 c6         1 LSM       0.356300
     13 O1B          4.7120     0.4090     0.1470 os         1 LSM      -0.481000
     14 C14          2.1800    -2.4830     0.2560 c6         1 LSM       0.115300
     15 O2           2.1050    -3.7120     1.0180 oh         1 LSM      -0.726000
     16 C2B          7.0880    -0.2660     0.5270 c6         1 LSM       0.128300
     17 O2B          6.7200    -1.2580     1.5170 oh         1 LSM      -0.734000
     18 C15          3.4580    -1.6940     0.6470 c6         1 LSM       0.149300
     19 O3           4.6090    -2.5470     0.5010 oh         1 LSM      -0.735000
     20 C3B          7.4940     1.0610     1.2280 c6         1 LSM       0.128300
     21 O3B          8.5920     0.8330     2.1310 oh         1 LSM      -0.669000
     22 C16          3.5440    -0.3770    -0.1930 c6         1 LSM       0.149300
     23 O4B          8.2230     3.3640     0.8430 oh         1 LSM      -0.721000
     24 C4B          7.8640     2.1420     0.1710 c6         1 LSM       0.146300
     25 C17          2.2390     0.4430     0.0260 c6         1 LSM       0.155300
     26 O5           1.0820    -0.3650    -0.3200 os         1 LSM      -0.415000
     27 C5B          6.6650     2.3330    -0.8110 c6         1 LSM       0.168300
     28 O5B          6.3230     1.0600    -1.4300 os         1 LSM      -0.453000
     29 C18          2.2090     1.7470    -0.8360 c3         1 LSM       0.170600
     30 O6           0.9870     2.5000    -0.6860 oh         1 LSM      -0.714000
     31 C6B          6.9810     3.3620    -1.9460 c3         1 LSM       0.169600
     32 O6B          5.9050     3.5190    -2.8960 oh         1 LSM      -0.719000
     33 H1          -1.7310    -0.6960     1.3720 h1         1 LSM       0.062200
     34 H1A         -1.5990    -0.1540    -0.3200 h1         1 LSM       0.062200
     35 H2          -3.3630    -1.8090    -0.9800 hc         1 LSM       0.054700
     36 H2A         -3.4950    -2.3450     0.6960 hc         1 LSM       0.054700
     37 H3          -4.2390    -0.0410     1.3740 hc         1 LSM       0.039700
     38 H3A         -4.1060     0.4950    -0.3010 hc         1 LSM       0.039700
     39 H4          -5.8640    -1.1720    -0.9730 hc         1 LSM       0.039700
     40 H4A         -5.9960    -1.7070     0.7030 hc         1 LSM       0.039700
     41 H5          -6.7350     0.5970     1.3810 hc         1 LSM       0.038200
     42 H5A         -6.6030     1.1330    -0.2950 hc         1 LSM       0.038200
     43 H6          -8.3590    -0.5340    -0.9660 hc         1 LSM       0.037700
     44 H6A         -8.4920    -1.0690     0.7090 hc         1 LSM       0.037700
     45 H7          -9.2310     1.2350     1.3860 hc         1 LSM       0.037200
     46 H7A         -9.0980     1.7700    -0.2890 hc         1 LSM       0.037200
     47 H8         -10.8550     0.1040    -0.9600 hc         1 LSM       0.037200
     48 H8A        -10.9880    -0.4310     0.7150 hc         1 LSM       0.037200
     49 H9         -11.7270     1.8730     1.3920 hc         1 LSM       0.036700
     50 H9A        -11.5950     2.4080    -0.2840 hc         1 LSM       0.036700
     51 H13          0.8460    -1.2930     1.5350 h2         1 LSM       0.059700
     52 H1B          5.7770    -0.9030    -1.0820 h2         1 LSM       0.085700
     53 H14          2.2330    -2.7180    -0.8190 h1         1 LSM       0.067700
     54 HO2          1.2070    -4.0900     0.8500 ho         1 LSM       0.530000
     55 H2B          7.9530    -0.6280    -0.0500 h1         1 LSM       0.064700
     56 HO2B         5.9130    -1.7340     1.1530 ho         1 LSM       0.538000
     57 H15          3.3580    -1.4050     1.7050 h1         1 LSM       0.058700
     58 HO3          4.2450    -3.4550     0.6730 ho         1 LSM       0.533000
     59 H3B          6.6210     1.4220     1.7930 h1         1 LSM       0.060700
     60 HO3B         8.4030    -0.0500     2.5290 ho         1 LSM       0.465000
     61 H16          3.5930    -0.6360    -1.2620 h1         1 LSM       0.070700
     62 HO4B         8.7280     3.0690     1.6400 ho         1 LSM       0.526000
     63 H4B          8.7240     1.7750    -0.4100 h1         1 LSM       0.052700
     64 H17          2.1650     0.7330     1.0850 h1         1 LSM       0.060700
     65 H5B          5.7940     2.7050    -0.2530 h1         1 LSM       0.069700
     66 H18          3.0690     2.3670    -0.5500 h1         1 LSM       0.044700
     67 H6'A         2.3520     1.4620    -1.8880 h1         1 LSM       0.044700
     68 HO6          1.0400     3.2630    -1.3070 ho         1 LSM       0.507000
     69 H6B          7.2080     4.3300    -1.4780 h1         1 LSM       0.038200
     70 H6BA         7.8930     3.0300    -2.4610 h1         1 LSM       0.038200
     71 HO6B         6.2300     4.1280    -3.6010 ho         1 LSM       0.504000
     72 C10        -13.2640     1.0750     0.0870 c3         1 LSM      -0.075400
     73 C11        -14.3110     2.1780     0.3560 c3         1 LSM      -0.075400
     74 C12        -15.7570     1.7140     0.0940 c3         1 LSM      -0.088100
     75 H10        -13.3520     0.7420    -0.9550 hc         1 LSM       0.036700
     76 H10A       -13.4850     0.2070     0.7210 hc         1 LSM       0.036700
     77 H11        -14.2280     2.5120     1.3980 hc         1 LSM       0.036700
     78 H11A       -14.0950     3.0470    -0.2780 hc         1 LSM       0.036700
     79 H12        -16.4620     2.5290     0.2980 hc         1 LSM       0.031367
     80 H12A       -15.8820     1.4060    -0.9510 hc         1 LSM       0.031367
     81 H12B       -16.0160     0.8660     0.7390 hc         1 LSM       0.031367
@<TRIPOS>BOND
     1     1     2 1   
     2     1    11 1   
     3     2     3 1   
     4     2    33 1   
     5     2    34 1   
     6     3     4 1   
     7     3    35 1   
     8     3    36 1   
     9     4     5 1   
    10     4    37 1   
    11     4    38 1   
    12     5     6 1   
    13     5    39 1   
    14     5    40 1   
    15     6     7 1   
    16     6    41 1   
    17     6    42 1   
    18     7     8 1   
    19     7    43 1   
    20     7    44 1   
    21     8     9 1   
    22     8    45 1   
    23     8    46 1   
    24     9    10 1   
    25     9    47 1   
    26     9    48 1   
    27    10    49 1   
    28    10    50 1   
    29    10    72 1   
    30    11    14 1   
    31    11    26 1   
    32    11    51 1   
    33    12    13 1   
    34    12    16 1   
    35    12    28 1   
    36    12    52 1   
    37    13    22 1   
    38    14    15 1   
    39    14    18 1   
    40    14    53 1   
    41    15    54 1   
    42    16    17 1   
    43    16    20 1   
    44    16    55 1   
    45    17    56 1   
    46    18    19 1   
    47    18    22 1   
    48    18    57 1   
    49    19    58 1   
    50    20    21 1   
    51    20    24 1   
    52    20    59 1   
    53    21    60 1   
    54    22    25 1   
    55    22    61 1   
    56    23    24 1   
    57    23    62 1   
    58    24    27 1   
    59    24    63 1   
    60    25    26 1   
    61    25    29 1   
    62    25    64 1   
    63    27    28 1   
    64    27    31 1   
    65    27    65 1   
    66    29    30 1   
    67    29    66 1   
    68    29    67 1   
    69    30    68 1   
    70    31    32 1   
    71    31    69 1   
    72    31    70 1   
    73    32    71 1   
    74    72    73 1   
    75    72    75 1   
    76    72    76 1   
    77    73    74 1   
    78    73    77 1   
    79    73    78 1   
    80    74    79 1   
    81    74    80 1   
    82    74    81 1   
@<TRIPOS>SUBSTRUCTURE
     1 LSM         1 TEMP              0 ****  ****    0 ROOT
