@<TRIPOS>MOLECULE
LSN
   53    56     1     0     0
SMALL
No Charge or Current Charge


@<TRIPOS>ATOM
      1 Cl          -3.7780    -0.6550    -3.3770 cl         1 LSN      -0.150000
      2 C17         -3.3110     0.0100    -1.8430 cc         1 LSN       0.339000
      3 C15         -2.6030    -0.6490    -0.8750 cd         1 LSN      -0.181300
      4 C16         -2.0500    -2.0510    -0.8730 c3         1 LSN       0.233900
      5 O           -2.8500    -2.8990    -0.0420 oh         1 LSN      -0.663000
      6 N6          -3.6240     1.2860    -1.4840 nc         1 LSN      -0.661000
      7 C18         -3.1080     1.4370    -0.2740 cd         1 LSN       0.412800
      8 C19         -3.2150     2.7280     0.5000 c3         1 LSN      -0.106700
      9 C20         -4.3610     2.7150     1.5370 c3         1 LSN      -0.077400
     10 C21         -4.4570     4.0250     2.3490 c3         1 LSN      -0.076400
     11 C22         -5.6000     4.0120     3.3820 c3         1 LSN      -0.088100
     12 N5          -2.4690     0.2760     0.1530 na         1 LSN      -0.143500
     13 C12         -1.7680     0.0650     1.4360 c3         1 LSN       0.116900
     14 C11         -0.2520    -0.0480     1.2970 ca         1 LSN      -0.110300
     15 C10          0.4610     0.7920     0.4170 ca         1 LSN      -0.096500
     16 C9           1.8530     0.6580     0.2810 ca         1 LSN      -0.093000
     17 C13          0.4510    -1.0050     2.0520 ca         1 LSN      -0.096500
     18 C14          1.8440    -1.1360     1.9160 ca         1 LSN      -0.093000
     19 C8           2.5660    -0.3180     1.0160 cp         1 LSN      -0.026000
     20 C7           4.0460    -0.4620     0.8710 cp         1 LSN      -0.003000
     21 C6           4.8480    -0.3280     2.0310 ca         1 LSN      -0.105000
     22 C5           6.2470    -0.3840     1.9620 ca         1 LSN      -0.094000
     23 C4           6.8720    -0.5710     0.7230 ca         1 LSN      -0.112000
     24 C3           6.0980    -0.7170    -0.4390 ca         1 LSN      -0.079000
     25 C2           4.6830    -0.6810    -0.3910 ca         1 LSN      -0.110500
     26 C1           3.9570    -0.9010    -1.6560 cc         1 LSN       0.551500
     27 N1           2.7830    -1.5980    -1.6960 nc         1 LSN      -0.373000
     28 N4           4.3960    -0.4760    -2.8210 nd         1 LSN      -0.512800
     29 N3           3.3900    -0.9470    -3.6270 na         1 LSN       0.110600
     30 N2           2.4130    -1.6260    -2.9440 nd         1 LSN      -0.174800
     31 H1          -2.0290    -2.4330    -1.9030 h1         1 LSN       0.050200
     32 H2          -1.0110    -2.0280    -0.5160 h1         1 LSN       0.050200
     33 H3          -2.4530    -3.7960    -0.0890 ho         1 LSN       0.447000
     34 H6          -2.2650     2.9370     1.0060 hc         1 LSN       0.060200
     35 H7          -3.3740     3.5610    -0.1960 hc         1 LSN       0.060200
     36 H8          -5.3120     2.5410     1.0170 hc         1 LSN       0.048200
     37 H9          -4.2190     1.8740     2.2270 hc         1 LSN       0.048200
     38 H10         -3.5080     4.2010     2.8700 hc         1 LSN       0.036700
     39 H11         -4.6070     4.8680     1.6630 hc         1 LSN       0.036700
     40 H12         -5.6290     4.9600     3.9320 hc         1 LSN       0.033367
     41 H13         -6.5690     3.8720     2.8880 hc         1 LSN       0.033367
     42 H14         -5.4590     3.2000     4.1060 hc         1 LSN       0.033367
     43 H15         -2.0000     0.8880     2.1220 h1         1 LSN       0.075200
     44 H16         -2.1640    -0.8520     1.8900 h1         1 LSN       0.075200
     45 H17         -0.0580     1.5480    -0.1680 ha         1 LSN       0.119500
     46 H18          2.3870     1.3130    -0.4020 ha         1 LSN       0.120000
     47 H19         -0.0810    -1.6570     2.7420 ha         1 LSN       0.119500
     48 H20          2.3690    -1.8870     2.5000 ha         1 LSN       0.120000
     49 H21          4.3730    -0.1580     2.9940 ha         1 LSN       0.121000
     50 H22          6.8440    -0.2720     2.8650 ha         1 LSN       0.118000
     51 H23          7.9570    -0.6110     0.6620 ha         1 LSN       0.119000
     52 H24          6.6090    -0.8810    -1.3860 ha         1 LSN       0.125000
     53 H4           3.3610    -0.8140    -4.6380 hn         1 LSN       0.409000
@<TRIPOS>BOND
     1     1     2 1   
     2     2     3 2   
     3     2     6 1   
     4     3     4 1   
     5     3    12 1   
     6     4     5 1   
     7     4    31 1   
     8     4    32 1   
     9     5    33 1   
    10     6     7 2   
    11     7     8 1   
    12     7    12 1   
    13     8     9 1   
    14     8    34 1   
    15     8    35 1   
    16     9    10 1   
    17     9    36 1   
    18     9    37 1   
    19    10    11 1   
    20    10    38 1   
    21    10    39 1   
    22    11    40 1   
    23    11    41 1   
    24    11    42 1   
    25    12    13 1   
    26    13    14 1   
    27    13    43 1   
    28    13    44 1   
    29    14    15 ar  
    30    14    17 ar  
    31    15    16 ar  
    32    15    45 1   
    33    16    19 ar  
    34    16    46 1   
    35    17    18 ar  
    36    17    47 1   
    37    18    19 ar  
    38    18    48 1   
    39    19    20 1   
    40    20    21 ar  
    41    20    25 ar  
    42    21    22 ar  
    43    21    49 1   
    44    22    23 ar  
    45    22    50 1   
    46    23    24 ar  
    47    23    51 1   
    48    24    25 ar  
    49    24    52 1   
    50    25    26 1   
    51    26    27 1   
    52    26    28 2   
    53    27    30 2   
    54    28    29 1   
    55    29    30 1   
    56    29    53 1   
@<TRIPOS>SUBSTRUCTURE
     1 LSN         1 TEMP              0 ****  ****    0 ROOT
