@<TRIPOS>MOLECULE
LSN
   53    56     1     0     0
SMALL
abcg2


@<TRIPOS>ATOM
      1 CL          -3.2870    -0.5150    -3.4130 cl         1 LSN      -0.150000
      2 C17         -2.9640     0.1380    -1.8580 cc         1 LSN       0.339000
      3 C15         -2.2690    -0.4650    -0.8530 cd         1 LSN      -0.181300
      4 C16         -1.5710    -1.7730    -0.7850 c3         1 LSN       0.233900
      5 O           -2.0950    -2.5310     0.2850 oh         1 LSN      -0.663000
      6 N6          -3.3930     1.3710    -1.5180 nc         1 LSN      -0.661000
      7 C18         -2.9740     1.5520    -0.2850 cd         1 LSN       0.412800
      8 C19         -3.2410     2.7710     0.5270 c3         1 LSN      -0.106700
      9 C20         -4.4450     2.6250     1.4610 c3         1 LSN      -0.077400
     10 C21         -4.6700     3.8710     2.3080 c3         1 LSN      -0.076400
     11 C22         -5.8860     3.7520     3.2160 c3         1 LSN      -0.088100
     12 N5          -2.2960     0.4670     0.1630 na         1 LSN      -0.143500
     13 C12         -1.6760     0.3010     1.4650 c3         1 LSN       0.116900
     14 C11         -0.1870     0.1130     1.3540 ca         1 LSN      -0.110300
     15 C10          0.5700     0.9360     0.5260 ca         1 LSN      -0.096500
     16 C9           1.9290     0.7270     0.3810 ca         1 LSN      -0.093000
     17 C13          0.4500    -0.8990     2.0600 ca         1 LSN      -0.096500
     18 C14          1.8170    -1.1010     1.9250 ca         1 LSN      -0.093000
     19 C8           2.5660    -0.3080     1.0640 cp         1 LSN      -0.026000
     20 C7           4.0110    -0.5520     0.8660 cp         1 LSN      -0.003000
     21 C6           4.8830    -0.4640     1.9480 ca         1 LSN      -0.105000
     22 C5           6.2510    -0.6200     1.7790 ca         1 LSN      -0.094000
     23 C4           6.7690    -0.8650     0.5140 ca         1 LSN      -0.112000
     24 C3           5.9120    -0.9740    -0.5690 ca         1 LSN      -0.079000
     25 C2           4.5360    -0.8310    -0.4030 ca         1 LSN      -0.110500
     26 C1           3.6630    -1.0200    -1.5650 cc         1 LSN       0.551500
     27 N1           2.5360    -1.7600    -1.5720 nc         1 LSN      -0.373000
     28 N4           3.9120    -0.5210    -2.7610 nd         1 LSN      -0.512800
     29 N3           2.9080    -0.9820    -3.4550 na         1 LSN       0.110600
     30 N2           2.0780    -1.7160    -2.7770 nd         1 LSN      -0.174800
     31 H1          -1.7110    -2.2760    -1.7490 h1         1 LSN       0.050200
     32 H2          -0.4930    -1.6140    -0.6680 h1         1 LSN       0.050200
     33 H3          -1.4720    -3.2370     0.4800 ho         1 LSN       0.447000
     34 H6          -2.3530     3.0490     1.1010 hc         1 LSN       0.060200
     35 H7          -3.4200     3.5910    -0.1700 hc         1 LSN       0.060200
     36 H8          -5.3360     2.4170     0.8620 hc         1 LSN       0.048200
     37 H9          -4.3100     1.7600     2.1180 hc         1 LSN       0.048200
     38 H10         -3.7780     4.0600     2.9130 hc         1 LSN       0.036700
     39 H11         -4.7830     4.7390     1.6520 hc         1 LSN       0.036700
     40 H12         -6.0110     4.6440     3.8300 hc         1 LSN       0.033367
     41 H13         -6.8020     3.6200     2.6370 hc         1 LSN       0.033367
     42 H14         -5.7940     2.8970     3.8870 hc         1 LSN       0.033367
     43 H15         -1.9030     1.1840     2.0620 h1         1 LSN       0.075200
     44 H16         -2.1320    -0.5480     1.9720 h1         1 LSN       0.075200
     45 H17          0.0980     1.7410    -0.0250 ha         1 LSN       0.119500
     46 H18          2.5020     1.3750    -0.2720 ha         1 LSN       0.120000
     47 H19         -0.1250    -1.5510     2.7050 ha         1 LSN       0.119500
     48 H20          2.2940    -1.9110     2.4630 ha         1 LSN       0.120000
     49 H21          4.4850    -0.2420     2.9300 ha         1 LSN       0.121000
     50 H22          6.9120    -0.5390     2.6310 ha         1 LSN       0.118000
     51 H23          7.8350    -0.9790     0.3720 ha         1 LSN       0.119000
     52 H24          6.3110    -1.1960    -1.5500 ha         1 LSN       0.125000
     53 H4           2.7780    -0.7850    -4.4390 hn         1 LSN       0.409000
@<TRIPOS>BOND
     1     1     2 1   
     2     2     3 2   
     3     2     6 1   
     4     3     4 1   
     5     3    12 1   
     6     4     5 1   
     7     4    31 1   
     8     4    32 1   
     9     5    33 1   
    10     6     7 2   
    11     7     8 1   
    12     7    12 1   
    13     8     9 1   
    14     8    34 1   
    15     8    35 1   
    16     9    10 1   
    17     9    36 1   
    18     9    37 1   
    19    10    11 1   
    20    10    38 1   
    21    10    39 1   
    22    11    40 1   
    23    11    41 1   
    24    11    42 1   
    25    12    13 1   
    26    13    14 1   
    27    13    43 1   
    28    13    44 1   
    29    14    15 ar  
    30    14    17 ar  
    31    15    16 ar  
    32    15    45 1   
    33    16    19 ar  
    34    16    46 1   
    35    17    18 ar  
    36    17    47 1   
    37    18    19 ar  
    38    18    48 1   
    39    19    20 1   
    40    20    21 ar  
    41    20    25 ar  
    42    21    22 ar  
    43    21    49 1   
    44    22    23 ar  
    45    22    50 1   
    46    23    24 ar  
    47    23    51 1   
    48    24    25 ar  
    49    24    52 1   
    50    25    26 1   
    51    26    27 1   
    52    26    28 2   
    53    27    30 2   
    54    28    29 1   
    55    29    30 1   
    56    29    53 1   
@<TRIPOS>SUBSTRUCTURE
     1 LSN         1 TEMP              0 ****  ****    0 ROOT
