@<TRIPOS>MOLECULE
LSP
   32    31     1     0     0
SMALL
bcc


@<TRIPOS>ATOM
      1 N           -5.0030    -1.8800     0.8110 nz         1 LSP      -0.824600
      2 C12         -5.2820    -0.8010    -0.1720 c3         1 LSP       0.119800
      3 C11         -4.4630     0.4290     0.1300 c3         1 LSP       0.172400
      4 P           -2.0090     1.3080    -0.0680 p5         1 LSP       1.377800
      5 O12         -2.1840     2.2730     1.0620 o          1 LSP      -0.800500
      6 O14         -1.9900     1.8030    -1.4800 o          1 LSP      -0.800500
      7 O11         -0.7300     0.3200     0.2070 os         1 LSP      -0.563200
      8 O13         -3.0990     0.0770     0.0740 os         1 LSP      -0.571200
      9 C1           0.5530     0.9070     0.1680 c3         1 LSP       0.161400
     10 C2           1.6000    -0.1930     0.0890 c3         1 LSP       0.139100
     11 O21          1.4410    -1.0070    -1.0450 oh         1 LSP      -0.578800
     12 C3           2.9800     0.4400     0.1560 c3         1 LSP       0.098400
     13 O31          3.9400    -0.6140     0.1720 os         1 LSP      -0.413900
     14 C31          5.2270    -0.2820     0.1790 c          1 LSP       0.641100
     15 O32          5.6160     0.8590     0.1680 o          1 LSP      -0.541000
     16 C32          6.1100    -1.4930     0.2330 c3         1 LSP      -0.156100
     17 HN1         -4.0100    -2.1100     0.8450 hn         1 LSP       0.452133
     18 HN2         -5.2880    -1.6200     1.7550 hn         1 LSP       0.452133
     19 HN3         -5.5020    -2.7360     0.5740 hn         1 LSP       0.452133
     20 H121        -6.3440    -0.5770    -0.1160 hx         1 LSP       0.094200
     21 H122        -5.0530    -1.2000    -1.1580 hx         1 LSP       0.094200
     22 H111        -4.7300     0.8280     1.1150 h1         1 LSP       0.066200
     23 H112        -4.7320     1.1870    -0.6140 h1         1 LSP       0.066200
     24 H11          0.7300     1.5160     1.0620 h1         1 LSP       0.035200
     25 H12          0.6590     1.5710    -0.7000 h1         1 LSP       0.035200
     26 H2           1.4770    -0.8540     0.9530 h1         1 LSP       0.084700
     27 H21          1.4860    -0.4560    -1.8340 ho         1 LSP       0.402000
     28 H31          3.0730     1.0510     1.0580 h1         1 LSP       0.052700
     29 H32          3.1460     1.0930    -0.7070 h1         1 LSP       0.052700
     30 H321         6.1260    -1.8850     1.2510 hc         1 LSP       0.067367
     31 H322         5.7450    -2.2870    -0.4160 hc         1 LSP       0.067367
     32 H323         7.1270    -1.2310    -0.0480 hc         1 LSP       0.067367
@<TRIPOS>BOND
     1     1     2 1   
     2     1    17 1   
     3     1    18 1   
     4     1    19 1   
     5     2     3 1   
     6     2    20 1   
     7     2    21 1   
     8     3     8 1   
     9     3    22 1   
    10     3    23 1   
    11     4     5 1   
    12     4     6 1   
    13     4     7 1   
    14     4     8 1   
    15     7     9 1   
    16     9    10 1   
    17     9    24 1   
    18     9    25 1   
    19    10    11 1   
    20    10    12 1   
    21    10    26 1   
    22    11    27 1   
    23    12    13 1   
    24    12    28 1   
    25    12    29 1   
    26    13    14 1   
    27    14    15 2   
    28    14    16 1   
    29    16    30 1   
    30    16    31 1   
    31    16    32 1   
@<TRIPOS>SUBSTRUCTURE
     1 LSP         1 TEMP              0 ****  ****    0 ROOT
