@<TRIPOS>MOLECULE
LSP
   32    31     1     0     0
SMALL
No Charge or Current Charge


@<TRIPOS>ATOM
      1 N           -2.7410    -1.4620     0.5370 nz         1 LSP      -0.962000
      2 C12         -4.0570    -0.8370     0.1250 c3         1 LSP       0.091600
      3 C11         -4.2860     0.5780     0.7280 c3         1 LSP       0.195600
      4 P           -2.4080     1.6550    -0.8940 p5         1 LSP       1.377800
      5 O12         -1.8480     3.0290    -1.0300 o          1 LSP      -0.800500
      6 O14         -3.3030     1.3030    -2.0320 o          1 LSP      -0.800500
      7 O11         -1.2450     0.5500    -0.6960 os         1 LSP      -0.586400
      8 O13         -3.1500     1.4510     0.5240 os         1 LSP      -0.594400
      9 C1          -0.0830     0.8980     0.0830 c3         1 LSP       0.184600
     10 C2           1.0000    -0.1860    -0.1550 c3         1 LSP       0.162300
     11 O21          1.0370    -0.5050    -1.5610 oh         1 LSP      -0.641000
     12 C3           2.3980     0.2610     0.3500 c3         1 LSP       0.121600
     13 O31          3.3100    -0.8540     0.2530 os         1 LSP      -0.437100
     14 C31          4.6110    -0.6580     0.6340 c          1 LSP       0.592100
     15 O32          5.0600     0.3980     1.0610 o          1 LSP      -0.492000
     16 C32          5.4410    -1.9240     0.4710 c3         1 LSP      -0.156100
     17 HN1         -1.9430    -0.9010     0.1900 hn         1 LSP       0.507333
     18 HN2         -2.6260    -1.5360     1.5590 hn         1 LSP       0.507333
     19 HN3         -2.6090    -2.4150     0.1630 hn         1 LSP       0.507333
     20 H121        -4.8770    -1.4900     0.4410 hx         1 LSP       0.094200
     21 H122        -4.0850    -0.7680    -0.9670 hx         1 LSP       0.094200
     22 H111        -4.4800     0.4710     1.8030 h1         1 LSP       0.066200
     23 H112        -5.1890     1.0130     0.2790 h1         1 LSP       0.066200
     24 H11         -0.3270     0.9500     1.1530 h1         1 LSP       0.035200
     25 H12          0.3190     1.8730    -0.2240 h1         1 LSP       0.035200
     26 H2           0.7070    -1.0750     0.4200 h1         1 LSP       0.084700
     27 H21          0.1300    -0.2930    -1.8830 ho         1 LSP       0.441000
     28 H31          2.3130     0.5960     1.3920 h1         1 LSP       0.052700
     29 H32          2.7490     1.1080    -0.2540 h1         1 LSP       0.052700
     30 H321         4.9570    -2.7370     1.0240 hc         1 LSP       0.067367
     31 H322         5.3590    -2.2690    -0.5660 hc         1 LSP       0.067367
     32 H323         6.4840    -1.7880     0.7750 hc         1 LSP       0.067367
@<TRIPOS>BOND
     1     1     2 1   
     2     1    17 1   
     3     1    18 1   
     4     1    19 1   
     5     2     3 1   
     6     2    20 1   
     7     2    21 1   
     8     3     8 1   
     9     3    22 1   
    10     3    23 1   
    11     4     5 1   
    12     4     6 1   
    13     4     7 1   
    14     4     8 1   
    15     7     9 1   
    16     9    10 1   
    17     9    24 1   
    18     9    25 1   
    19    10    11 1   
    20    10    12 1   
    21    10    26 1   
    22    11    27 1   
    23    12    13 1   
    24    12    28 1   
    25    12    29 1   
    26    13    14 1   
    27    14    15 2   
    28    14    16 1   
    29    16    30 1   
    30    16    31 1   
    31    16    32 1   
@<TRIPOS>SUBSTRUCTURE
     1 LSP         1 TEMP              0 ****  ****    0 ROOT
