@<TRIPOS>MOLECULE
LSQ
   20    20     1     0     0
SMALL
abcg2


@<TRIPOS>ATOM
      1 C10        -12.9480   204.4470     7.8890 ca         1 LSQ       0.122000
      2 C02         -8.1940   203.6600    11.4840 c          1 LSQ       0.720000
      3 C04         -9.1070   203.9530    10.2740 c3         1 LSQ      -0.206400
      4 C05        -10.2950   204.8700    10.5550 c3         1 LSQ      -0.025100
      5 C06        -11.1260   205.0890     9.3230 ca         1 LSQ      -0.033300
      6 C07        -10.7990   206.0860     8.4050 ca         1 LSQ      -0.115000
      7 C08        -11.5410   206.2570     7.2460 ca         1 LSQ      -0.110000
      8 C09        -12.6280   205.4370     6.9740 ca         1 LSQ      -0.134000
      9 C11        -12.2150   204.2660     9.0510 ca         1 LSQ      -0.110000
     10 O01         -7.1700   202.9920    11.2350 o          1 LSQ      -0.737000
     11 O03         -8.5490   204.0980    12.5950 o          1 LSQ      -0.737000
     12 CL         -14.3050   203.4080     7.5760 cl         1 LSQ      -0.243000
     13 H1          -9.4720   202.9980     9.8790 hc         1 LSQ       0.021200
     14 H2          -8.4980   204.3790     9.4690 hc         1 LSQ       0.021200
     15 H3          -9.9350   205.8320    10.9260 hc         1 LSQ       0.053200
     16 H4         -10.9130   204.4400    11.3450 hc         1 LSQ       0.053200
     17 H5          -9.9570   206.7380     8.6020 ha         1 LSQ       0.118000
     18 H6         -11.2780   207.0380     6.5450 ha         1 LSQ       0.101000
     19 H7         -13.2110   205.5680     6.0720 ha         1 LSQ       0.111000
     20 H8         -12.4910   203.4870     9.7510 ha         1 LSQ       0.130000
@<TRIPOS>BOND
     1     1     8 ar  
     2     1     9 ar  
     3     1    12 1   
     4     2     3 1   
     5     2    10 1   
     6     2    11 1   
     7     3     4 1   
     8     3    13 1   
     9     3    14 1   
    10     4     5 1   
    11     4    15 1   
    12     4    16 1   
    13     5     6 ar  
    14     5     9 ar  
    15     6     7 ar  
    16     6    17 1   
    17     7     8 ar  
    18     7    18 1   
    19     8    19 1   
    20     9    20 1   
@<TRIPOS>SUBSTRUCTURE
     1 LSQ         1 TEMP              0 ****  ****    0 ROOT
