@<TRIPOS>MOLECULE
LSQ
   20    20     1     0     0
SMALL
No Charge or Current Charge


@<TRIPOS>ATOM
      1 C10        -13.0460   204.5500     7.9870 ca         1 LSQ       0.122000
      2 C02         -8.2720   203.6100    11.5460 c          1 LSQ       0.720000
      3 C04         -9.1420   203.7600    10.2880 c3         1 LSQ      -0.206400
      4 C05        -10.1500   204.9180    10.4760 c3         1 LSQ      -0.025100
      5 C06        -11.0390   205.1130     9.2540 ca         1 LSQ      -0.033300
      6 C07        -10.6770   206.0310     8.2480 ca         1 LSQ      -0.115000
      7 C08        -11.4960   206.2090     7.1190 ca         1 LSQ      -0.110000
      8 C09        -12.6820   205.4680     6.9890 ca         1 LSQ      -0.134000
      9 C11        -12.2290   204.3710     9.1160 ca         1 LSQ      -0.110000
     10 O01         -7.2440   204.2660    11.6170 o          1 LSQ      -0.737000
     11 O03         -8.6750   202.8840    12.4420 o          1 LSQ      -0.737000
     12 Cl         -14.5300   203.6200     7.8230 cl         1 LSQ      -0.243000
     13 H1          -9.7460   202.8580    10.1280 hc         1 LSQ       0.021200
     14 H2          -8.5250   204.0370     9.4240 hc         1 LSQ       0.021200
     15 H3          -9.6010   205.8430    10.6930 hc         1 LSQ       0.053200
     16 H4         -10.7690   204.7180    11.3600 hc         1 LSQ       0.053200
     17 H5          -9.7580   206.6070     8.3410 ha         1 LSQ       0.118000
     18 H6         -11.2110   206.9200     6.3470 ha         1 LSQ       0.101000
     19 H7         -13.3170   205.6030     6.1170 ha         1 LSQ       0.111000
     20 H8         -12.5190   203.6560     9.8810 ha         1 LSQ       0.130000
@<TRIPOS>BOND
     1     1     8 ar  
     2     1     9 ar  
     3     1    12 1   
     4     2     3 1   
     5     2    10 1   
     6     2    11 1   
     7     3     4 1   
     8     3    13 1   
     9     3    14 1   
    10     4     5 1   
    11     4    15 1   
    12     4    16 1   
    13     5     6 ar  
    14     5     9 ar  
    15     6     7 ar  
    16     6    17 1   
    17     7     8 ar  
    18     7    18 1   
    19     8    19 1   
    20     9    20 1   
@<TRIPOS>SUBSTRUCTURE
     1 LSQ         1 TEMP              0 ****  ****    0 ROOT
