@<TRIPOS>MOLECULE
LSR
   39    39     1     0     0
SMALL
bcc


@<TRIPOS>ATOM
      1 CAF          5.3480    -0.3050     0.6770 c3         1 LSR      -0.054900
      2 CAE          3.8710    -0.5100     0.6480 c2         1 LSR      -0.158200
      3 CAD          2.9410     0.1800    -0.0330 ce         1 LSR      -0.081200
      4 CAA          3.2430     1.3430    -0.9310 c3         1 LSR      -0.052900
      5 CAC          1.5440    -0.2210     0.1150 ce         1 LSR      -0.132000
      6 CAB          0.4910     0.3440    -0.4920 cf         1 LSR      -0.117000
      7 CAK         -0.9080    -0.0670    -0.2960 cf         1 LSR      -0.078200
      8 CAJ         -1.2960    -1.3530    -0.3740 c2         1 LSR      -0.102400
      9 CAI         -0.4090    -2.4870    -0.8040 c3         1 LSR      -0.055900
     10 CAN         -2.6960    -1.8010    -0.0490 c6         1 LSR      -0.040200
     11 CAO         -3.5070    -0.7530     0.6890 c6         1 LSR      -0.071400
     12 CAP         -3.3310     0.5830    -0.0050 c6         1 LSR      -0.068400
     13 CAL         -1.8780     1.0720     0.0280 c6         1 LSR       0.001200
     14 CAH         -1.5420     1.6350     1.4150 c3         1 LSR      -0.081600
     15 CAM         -1.7560     2.2050    -1.0000 c3         1 LSR      -0.081600
     16 HAE          3.5170    -1.3310     1.2670 ha         1 LSR       0.114000
     17 HAA          2.9250     1.1410    -1.9560 hc         1 LSR       0.039367
     18 HAAA         2.7050     2.2360    -0.6060 hc         1 LSR       0.039367
     19 HAAB         4.3010     1.5900    -0.9580 hc         1 LSR       0.039367
     20 HAC          1.3680    -1.0480     0.7990 ha         1 LSR       0.120000
     21 HAB          0.6620     1.1990    -1.1380 ha         1 LSR       0.124000
     22 HAI         -0.0860    -3.0870     0.0510 hc         1 LSR       0.040367
     23 HAIA        -0.9660    -3.1630    -1.4580 hc         1 LSR       0.040367
     24 HAIB         0.4840    -2.1600    -1.3340 hc         1 LSR       0.040367
     25 HAN         -3.2040    -2.0840    -0.9800 hc         1 LSR       0.044200
     26 HANA        -2.6370    -2.7250     0.5370 hc         1 LSR       0.044200
     27 HAO         -4.5610    -1.0400     0.7170 hc         1 LSR       0.041700
     28 HAOA        -3.1750    -0.6880     1.7290 hc         1 LSR       0.041700
     29 HAP         -3.6510     0.4790    -1.0480 hc         1 LSR       0.040700
     30 HAPA        -3.9720     1.3510     0.4390 hc         1 LSR       0.040700
     31 HAH         -0.5110     1.9900     1.4560 hc         1 LSR       0.034033
     32 HAHA        -2.1940     2.4780     1.6580 hc         1 LSR       0.034033
     33 HAHB        -1.6600     0.8830     2.1960 hc         1 LSR       0.034033
     34 HAM         -1.8480     1.8290    -2.0210 hc         1 LSR       0.034033
     35 HAMA        -2.5580     2.9290    -0.8410 hc         1 LSR       0.034033
     36 HAMB        -0.8150     2.7520    -0.9230 hc         1 LSR       0.034033
     37 HAF          5.8680    -1.2150     0.3690 hc         1 LSR       0.039700
     38 HAFA         5.6910     0.5060     0.0380 hc         1 LSR       0.039700
     39 H24          5.6840    -0.0920     1.6950 hc         1 LSR       0.039700
@<TRIPOS>BOND
     1     1     2 1   
     2     1    37 1   
     3     1    38 1   
     4     1    39 1   
     5     2     3 2   
     6     2    16 1   
     7     3     4 1   
     8     3     5 1   
     9     4    17 1   
    10     4    18 1   
    11     4    19 1   
    12     5     6 2   
    13     5    20 1   
    14     6     7 1   
    15     6    21 1   
    16     7     8 2   
    17     7    13 1   
    18     8     9 1   
    19     8    10 1   
    20     9    22 1   
    21     9    23 1   
    22     9    24 1   
    23    10    11 1   
    24    10    25 1   
    25    10    26 1   
    26    11    12 1   
    27    11    27 1   
    28    11    28 1   
    29    12    13 1   
    30    12    29 1   
    31    12    30 1   
    32    13    14 1   
    33    13    15 1   
    34    14    31 1   
    35    14    32 1   
    36    14    33 1   
    37    15    34 1   
    38    15    35 1   
    39    15    36 1   
@<TRIPOS>SUBSTRUCTURE
     1 LSR         1 TEMP              0 ****  ****    0 ROOT
