@<TRIPOS>MOLECULE
LSR
   39    39     1     0     0
SMALL
No Charge or Current Charge


@<TRIPOS>ATOM
      1 CAF          5.4290    -0.2480     0.6360 c3         1 LSR      -0.054900
      2 CAE          3.9310    -0.4810     0.6600 c2         1 LSR      -0.208200
      3 CAD          2.9860     0.1710    -0.0580 ce         1 LSR      -0.081200
      4 CAA          3.3210     1.2860    -1.0440 c3         1 LSR      -0.052900
      5 CAC          1.5670    -0.1990     0.0980 ce         1 LSR      -0.182000
      6 CAB          0.4920     0.3600    -0.5320 cf         1 LSR      -0.167000
      7 CAK         -0.9120    -0.0650    -0.3030 cf         1 LSR      -0.078200
      8 CAJ         -1.2990    -1.3740    -0.3890 c2         1 LSR      -0.102400
      9 CAI         -0.4000    -2.5330    -0.7940 c3         1 LSR      -0.055900
     10 CAN         -2.7550    -1.8140    -0.0940 c6         1 LSR      -0.040200
     11 CAO         -3.6780    -0.7440     0.5740 c6         1 LSR      -0.071400
     12 CAP         -3.4010     0.6230    -0.0760 c6         1 LSR      -0.068400
     13 CAL         -1.9140     1.0760     0.0850 c6         1 LSR       0.001200
     14 CAH         -1.6100     1.4780     1.5610 c3         1 LSR      -0.081600
     15 CAM         -1.6980     2.3450    -0.8000 c3         1 LSR      -0.081600
     16 HAE          3.6340    -1.2740     1.3490 ha         1 LSR       0.164000
     17 HAA          2.9660     1.0410    -2.0520 hc         1 LSR       0.039367
     18 HAAA         2.8520     2.2310    -0.7440 hc         1 LSR       0.039367
     19 HAAB         4.3970     1.4770    -1.1250 hc         1 LSR       0.039367
     20 HAC          1.3630    -1.0030     0.8070 ha         1 LSR       0.170000
     21 HAB          0.6940     1.1940    -1.2230 ha         1 LSR       0.174000
     22 HAI         -0.0250    -3.0650     0.0880 hc         1 LSR       0.040367
     23 HAIA        -0.9430    -3.2590    -1.4110 hc         1 LSR       0.040367
     24 HAIB         0.4630    -2.2060    -1.3840 hc         1 LSR       0.040367
     25 HAN         -3.2140    -2.1250    -1.0420 hc         1 LSR       0.044200
     26 HANA        -2.7450    -2.7130     0.5390 hc         1 LSR       0.044200
     27 HAO         -4.7330    -1.0240     0.4490 hc         1 LSR       0.041700
     28 HAOA        -3.4900    -0.7030     1.6550 hc         1 LSR       0.041700
     29 HAP         -3.6540     0.5620    -1.1440 hc         1 LSR       0.040700
     30 HAPA        -4.0760     1.3780     0.3520 hc         1 LSR       0.040700
     31 HAH         -0.5960     1.8840     1.6650 hc         1 LSR       0.034033
     32 HAHA        -2.3080     2.2430     1.9210 hc         1 LSR       0.034033
     33 HAHB        -1.6790     0.6190     2.2390 hc         1 LSR       0.034033
     34 HAM         -1.7450     2.0970    -1.8680 hc         1 LSR       0.034033
     35 HAMA        -2.4690     3.1000    -0.6050 hc         1 LSR       0.034033
     36 HAMB        -0.7330     2.8280    -0.6100 hc         1 LSR       0.034033
     37 HAF          5.9440    -0.9200     1.3330 hc         1 LSR       0.039700
     38 HAFA         5.8430    -0.4270    -0.3640 hc         1 LSR       0.039700
     39 H24          5.6750     0.7810     0.9260 hc         1 LSR       0.039700
@<TRIPOS>BOND
     1     1     2 1   
     2     1    37 1   
     3     1    38 1   
     4     1    39 1   
     5     2     3 2   
     6     2    16 1   
     7     3     4 1   
     8     3     5 1   
     9     4    17 1   
    10     4    18 1   
    11     4    19 1   
    12     5     6 2   
    13     5    20 1   
    14     6     7 1   
    15     6    21 1   
    16     7     8 2   
    17     7    13 1   
    18     8     9 1   
    19     8    10 1   
    20     9    22 1   
    21     9    23 1   
    22     9    24 1   
    23    10    11 1   
    24    10    25 1   
    25    10    26 1   
    26    11    12 1   
    27    11    27 1   
    28    11    28 1   
    29    12    13 1   
    30    12    29 1   
    31    12    30 1   
    32    13    14 1   
    33    13    15 1   
    34    14    31 1   
    35    14    32 1   
    36    14    33 1   
    37    15    34 1   
    38    15    35 1   
    39    15    36 1   
@<TRIPOS>SUBSTRUCTURE
     1 LSR         1 TEMP              0 ****  ****    0 ROOT
