@<TRIPOS>MOLECULE
LSS
   56    58     1     0     0
SMALL
abcg2


@<TRIPOS>ATOM
      1 C1           2.2400    -0.6030    -0.5220 c          1 LSS       0.577100
      2 N1          -4.4930    -2.8730    -0.8810 nb         1 LSS      -0.299000
      3 O1           1.7200    -0.4480    -1.5980 o          1 LSS      -0.515100
      4 S1           3.0140     1.9790    -0.4280 s6         1 LSS       1.434500
      5 C2          -4.8940    -1.6230    -1.0940 ca         1 LSS       0.189900
      6 N2           2.7430     0.4660     0.2060 ns         1 LSS      -0.628300
      7 O2          -3.4210     2.4140     2.0420 oh         1 LSS      -0.689000
      8 N3          -4.2670    -0.4970    -0.7970 nb         1 LSS      -0.215000
      9 O3          -2.5630     4.5080     0.4360 oh         1 LSS      -0.697000
     10 C4          -3.0930    -0.7270    -0.2180 ca         1 LSS       0.151500
     11 N4           1.5350    -2.9740    -0.3020 n8         1 LSS      -1.005200
     12 O4          -1.1750     2.0770    -0.6550 os         1 LSS      -0.421000
     13 C5          -2.5420    -1.9660     0.0640 ca         1 LSS      -0.103600
     14 O5           1.5560     2.5450    -0.6780 os         1 LSS      -0.542700
     15 C6          -3.3090    -3.0890    -0.2980 ca         1 LSS       0.453900
     16 N6          -2.8970    -4.3400    -0.0910 nv         1 LSS      -1.062900
     17 C7           4.3100    -3.6750     0.6080 c3         1 LSS      -0.055700
     18 N7          -1.3150    -1.8270     0.6600 nc         1 LSS      -0.569100
     19 C8          -1.1350    -0.5440     0.7390 cd         1 LSS       0.405700
     20 C9           3.9040    -2.3790    -0.0930 c3         1 LSS      -0.067400
     21 N9          -2.1750     0.1830     0.2300 na         1 LSS      -0.284300
     22 CA           2.4450    -1.9580     0.1530 c3         1 LSS       0.104500
     23 C10          5.7290    -4.0550     0.1950 c3         1 LSS      -0.088600
     24 C11          4.2070    -3.5600     2.1250 c3         1 LSS      -0.088600
     25 O1A          3.6650     2.7140     0.6280 o          1 LSS      -0.538000
     26 C21         -2.2540     1.6150     0.1140 c5         1 LSS       0.312300
     27 C22         -2.1600     2.3490     1.4510 c5         1 LSS       0.081300
     28 C23         -1.5780     3.6960     1.0140 c5         1 LSS       0.110300
     29 C24         -0.6190     3.2590    -0.0870 c5         1 LSS       0.166300
     30 C25          0.7730     2.9880     0.4460 c3         1 LSS       0.186600
     31 O2A          3.5910     1.8780    -1.7390 o          1 LSS      -0.538000
     32 HN2          3.1500     0.3060     1.1210 hn         1 LSS       0.343500
     33 HO2         -3.3170     2.5820     2.9840 ho         1 LSS       0.517000
     34 HO3         -3.3290     4.5150     1.0210 ho         1 LSS       0.526000
     35 HN4          0.5850    -2.7540    -0.0270 hn         1 LSS       0.426500
     36 HN4A         1.5500    -3.0350    -1.3130 hn         1 LSS       0.426500
     37 HN6         -3.4980    -5.1140    -0.3160 hn         1 LSS       0.508000
     38 HN6A        -2.0430    -4.5310     0.4020 hn         1 LSS       0.508000
     39 H7           3.6320    -4.4660     0.2760 hc         1 LSS       0.069700
     40 H8          -0.2600    -0.0730     1.1610 h5         1 LSS       0.054800
     41 H9           4.5800    -1.5780     0.2250 hc         1 LSS       0.046200
     42 H9A          4.0500    -2.4920    -1.1730 hc         1 LSS       0.046200
     43 HA           2.2930    -1.8220     1.2290 h1         1 LSS       0.068700
     44 H10          6.4460    -3.2890     0.5000 hc         1 LSS       0.032367
     45 H10A         6.0330    -4.9950     0.6580 hc         1 LSS       0.032367
     46 H10B         5.8130    -4.1750    -0.8870 hc         1 LSS       0.032367
     47 H11          3.1840    -3.3770     2.4580 hc         1 LSS       0.032367
     48 H11A         4.5420    -4.4780     2.6090 hc         1 LSS       0.032367
     49 H11B         4.8290    -2.7420     2.4980 hc         1 LSS       0.032367
     50 H21         -3.2120     1.8310    -0.3690 h2         1 LSS       0.129700
     51 H22         -1.4370     1.8430     2.1030 h1         1 LSS       0.046700
     52 H23         -1.0600     4.2050     1.8380 h1         1 LSS       0.055700
     53 H24         -0.5520     4.0260    -0.8650 h1         1 LSS       0.117700
     54 H25          0.7700     2.2300     1.2350 h1         1 LSS       0.051200
     55 H25A         1.1960     3.9080     0.8510 h1         1 LSS       0.051200
     56 H2          -5.8620    -1.5190    -1.5720 h5         1 LSS       0.050100
@<TRIPOS>BOND
     1     1     3 2   
     2     1     6 1   
     3     1    22 1   
     4     2     5 ar  
     5     2    15 ar  
     6     4     6 1   
     7     4    14 1   
     8     4    25 2   
     9     4    31 2   
    10     5     8 ar  
    11     5    56 1   
    12     6    32 1   
    13     7    27 1   
    14     7    33 1   
    15     8    10 ar  
    16     9    28 1   
    17     9    34 1   
    18    10    13 ar  
    19    10    21 1   
    20    11    22 1   
    21    11    35 1   
    22    11    36 1   
    23    12    26 1   
    24    12    29 1   
    25    13    15 ar  
    26    13    18 1   
    27    14    30 1   
    28    15    16 1   
    29    16    37 1   
    30    16    38 1   
    31    17    20 1   
    32    17    23 1   
    33    17    24 1   
    34    17    39 1   
    35    18    19 2   
    36    19    21 1   
    37    19    40 1   
    38    20    22 1   
    39    20    41 1   
    40    20    42 1   
    41    21    26 1   
    42    22    43 1   
    43    23    44 1   
    44    23    45 1   
    45    23    46 1   
    46    24    47 1   
    47    24    48 1   
    48    24    49 1   
    49    26    27 1   
    50    26    50 1   
    51    27    28 1   
    52    27    51 1   
    53    28    29 1   
    54    28    52 1   
    55    29    30 1   
    56    29    53 1   
    57    30    54 1   
    58    30    55 1   
@<TRIPOS>SUBSTRUCTURE
     1 LSS         1 TEMP              0 ****  ****    0 ROOT
