@<TRIPOS>MOLECULE
LSS
   56    58     1     0     0
SMALL
No Charge or Current Charge


@<TRIPOS>ATOM
      1 C1           2.6300    -0.4760    -0.7700 c          1 LSS       0.577100
      2 N1          -2.3160    -3.0250     1.2900 nb         1 LSS      -0.299000
      3 O1           2.9120    -0.1410    -1.9120 o          1 LSS      -0.515100
      4 S1           2.7880     2.0490     0.2570 s6         1 LSS       1.434500
      5 C2          -3.0580    -1.9660     1.6910 ca         1 LSS       0.189900
      6 N2           2.4470     0.4200     0.2420 ns         1 LSS      -0.628300
      7 O2          -4.1950     2.6310     1.2280 oh         1 LSS      -0.689000
      8 N3          -3.0480    -0.7230     1.1570 nb         1 LSS      -0.215000
      9 O3          -2.9680     4.8690     0.4960 oh         1 LSS      -0.697000
     10 C4          -2.2160    -0.5330     0.1120 ca         1 LSS       0.151500
     11 N4           1.7300    -2.8130    -1.4330 n8         1 LSS      -1.005200
     12 O4          -1.5100     2.8700    -1.0700 os         1 LSS      -0.421000
     13 C5          -1.4390    -1.5490    -0.3880 ca         1 LSS      -0.103600
     14 O5           1.3490     2.6220    -0.2980 os         1 LSS      -0.542700
     15 C6          -1.5040    -2.8110     0.2440 ca         1 LSS       0.453900
     16 N6          -0.7340    -3.8670    -0.1280 nv         1 LSS      -1.062900
     17 C7           3.6070    -4.0450     0.7300 c3         1 LSS      -0.055700
     18 N7          -0.6850    -1.1470    -1.4840 nc         1 LSS      -0.569100
     19 C8          -1.0240     0.1470    -1.6010 cd         1 LSS       0.405700
     20 C9           3.7270    -2.6380     0.0740 c3         1 LSS      -0.067400
     21 N9          -1.9450     0.5880    -0.6360 na         1 LSS      -0.284300
     22 CA           2.3930    -1.9800    -0.3720 c3         1 LSS       0.104500
     23 C10          5.0050    -4.6580     0.9740 c3         1 LSS      -0.088600
     24 C11          2.7830    -4.0290     2.0410 c3         1 LSS      -0.088600
     25 O1A          2.9500     2.4400     1.6600 o          1 LSS      -0.538000
     26 C21         -2.4770     1.9460    -0.5150 c5         1 LSS       0.312300
     27 C22         -2.7890     2.4750     0.9440 c5         1 LSS       0.081300
     28 C23         -2.0730     3.8600     0.9750 c5         1 LSS       0.110300
     29 C24         -0.8760     3.5910     0.0150 c5         1 LSS       0.166300
     30 C25          0.2860     2.7750     0.6640 c3         1 LSS       0.186600
     31 O2A          3.8280     2.3440    -0.7340 o          1 LSS      -0.538000
     32 HN2          2.2290     0.0940     1.1670 hn         1 LSS       0.343500
     33 HO2         -4.5480     1.7430     1.4820 ho         1 LSS       0.517000
     34 HO3         -3.8570     4.4540     0.6480 ho         1 LSS       0.526000
     35 HN4          0.9140    -2.2730    -1.7700 hn         1 LSS       0.426500
     36 HN4A         2.3380    -2.8250    -2.2620 hn         1 LSS       0.426500
     37 HN6         -0.6740    -4.6420     0.5240 hn         1 LSS       0.508000
     38 HN6A         0.1390    -3.6380    -0.6130 hn         1 LSS       0.508000
     39 H7           3.0890    -4.7070     0.0240 hc         1 LSS       0.069700
     40 H8          -0.6370     0.8240    -2.3540 h5         1 LSS       0.054800
     41 H9           4.2270    -1.9680     0.7850 hc         1 LSS       0.046200
     42 H9A          4.3900    -2.7030    -0.7970 hc         1 LSS       0.046200
     43 HA           1.7120    -1.9510     0.4890 h1         1 LSS       0.068700
     44 H10          5.5820    -4.0480     1.6800 hc         1 LSS       0.032367
     45 H10A         4.9180    -5.6710     1.3880 hc         1 LSS       0.032367
     46 H10B         5.5690    -4.7260     0.0370 hc         1 LSS       0.032367
     47 H11          1.7470    -3.7240     1.8580 hc         1 LSS       0.032367
     48 H11A         2.7560    -5.0280     2.4920 hc         1 LSS       0.032367
     49 H11B         3.2230    -3.3380     2.7710 hc         1 LSS       0.032367
     50 H21         -3.3870     1.9660    -1.1280 h2         1 LSS       0.129700
     51 H22         -2.3260     1.8190     1.6940 h1         1 LSS       0.046700
     52 H23         -1.7290     4.1100     1.9900 h1         1 LSS       0.055700
     53 H24         -0.4570     4.5310    -0.3690 h1         1 LSS       0.117700
     54 H25         -0.0710     1.7970     1.0120 h1         1 LSS       0.051200
     55 H25A         0.6260     3.3420     1.5410 h1         1 LSS       0.051200
     56 H2          -3.7240    -2.1290     2.5360 h5         1 LSS       0.050100
@<TRIPOS>BOND
     1     1     3 2   
     2     1     6 1   
     3     1    22 1   
     4     2     5 ar  
     5     2    15 ar  
     6     4     6 1   
     7     4    14 1   
     8     4    25 2   
     9     4    31 2   
    10     5     8 ar  
    11     5    56 1   
    12     6    32 1   
    13     7    27 1   
    14     7    33 1   
    15     8    10 ar  
    16     9    28 1   
    17     9    34 1   
    18    10    13 ar  
    19    10    21 1   
    20    11    22 1   
    21    11    35 1   
    22    11    36 1   
    23    12    26 1   
    24    12    29 1   
    25    13    15 ar  
    26    13    18 1   
    27    14    30 1   
    28    15    16 1   
    29    16    37 1   
    30    16    38 1   
    31    17    20 1   
    32    17    23 1   
    33    17    24 1   
    34    17    39 1   
    35    18    19 2   
    36    19    21 1   
    37    19    40 1   
    38    20    22 1   
    39    20    41 1   
    40    20    42 1   
    41    21    26 1   
    42    22    43 1   
    43    23    44 1   
    44    23    45 1   
    45    23    46 1   
    46    24    47 1   
    47    24    48 1   
    48    24    49 1   
    49    26    27 1   
    50    26    50 1   
    51    27    28 1   
    52    27    51 1   
    53    28    29 1   
    54    28    52 1   
    55    29    30 1   
    56    29    53 1   
    57    30    54 1   
    58    30    55 1   
@<TRIPOS>SUBSTRUCTURE
     1 LSS         1 TEMP              0 ****  ****    0 ROOT
