@<TRIPOS>MOLECULE
LSU
   53    54     1     0     0
SMALL
No Charge or Current Charge


@<TRIPOS>ATOM
      1 N           -1.3980     1.1630    -1.1980 n8         1 LSU      -0.987200
      2 CA          -2.4770     0.7110    -0.2570 c3         1 LSU       0.098500
      3 C           -2.7800    -0.8280    -0.3320 c          1 LSU       0.586100
      4 O           -3.1390    -1.3680    -1.3680 o          1 LSU      -0.520100
      5 CB          -3.7730     1.5430    -0.4580 c3         1 LSU      -0.067400
      6 CG          -3.6470     3.0760    -0.2100 c3         1 LSU      -0.053700
      7 CD1         -4.9620     3.8020    -0.5750 c3         1 LSU      -0.089600
      8 CD2         -3.2180     3.4210     1.2370 c3         1 LSU      -0.089600
      9 C1           1.8940    -0.2150    -0.2160 c5         1 LSU       0.329700
     10 C2           2.1140     2.2340     0.1540 c          1 LSU       0.627000
     11 C7           2.7990    -1.1400     0.6630 c5         1 LSU       0.082300
     12 C3           2.6010    -2.4630    -0.1270 c5         1 LSU       0.112300
     13 C4           0.9500     3.3790     1.9740 c          1 LSU       0.595200
     14 C8           1.0600    -2.4110    -0.4360 c5         1 LSU       0.154300
     15 C5           0.4150     2.0780     2.3670 cc         1 LSU      -0.374200
     16 C9           0.1820    -3.1110     0.6340 c3         1 LSU       0.202600
     17 C6           0.7180     0.9290     1.6750 cd         1 LSU      -0.008400
     18 N1           1.5660     1.0030     0.5690 n          1 LSU      -0.315000
     19 N3           1.7630     3.3240     0.8890 ns         1 LSU      -0.469500
     20 N3S         -2.5630    -1.5160     0.8230 ns         1 LSU      -0.622300
     21 O1S         -2.0830    -3.4390     2.3870 o          1 LSU      -0.538000
     22 O2           4.1910    -0.7630     0.7100 oh         1 LSU      -0.690000
     23 O2S         -3.5820    -3.8060     0.3480 o          1 LSU      -0.538000
     24 O3           3.4100    -2.4430    -1.3100 oh         1 LSU      -0.697000
     25 O4           0.7060     4.4230     2.5520 o          1 LSU      -0.511000
     26 O7           0.7070    -0.9930    -0.4670 os         1 LSU      -0.451000
     27 O5          -1.1070    -3.3730     0.0430 os         1 LSU      -0.555700
     28 S           -2.4310    -3.1620     0.9900 s6         1 LSU       1.440500
     29 H1          -0.5580     0.5940    -1.0210 hn         1 LSU       0.413000
     30 H2          -1.6610     0.8980    -2.1540 hn         1 LSU       0.413000
     31 H4          -2.1140     0.9000     0.7620 h1         1 LSU       0.070700
     32 H5          -4.1400     1.3760    -1.4790 hc         1 LSU       0.047200
     33 H6          -4.5480     1.1460     0.2110 hc         1 LSU       0.047200
     34 H7          -2.8730     3.4660    -0.8830 hc         1 LSU       0.066700
     35 H8          -5.7860     3.4650     0.0660 hc         1 LSU       0.033867
     36 H9          -4.8540     4.8860    -0.4540 hc         1 LSU       0.033867
     37 H10         -5.2380     3.6060    -1.6190 hc         1 LSU       0.033867
     38 H11         -2.2160     3.0350     1.4550 hc         1 LSU       0.033867
     39 H12         -3.1890     4.5070     1.3830 hc         1 LSU       0.033867
     40 H13         -3.9190     2.9960     1.9650 hc         1 LSU       0.033867
     41 H14          2.3850     0.0590    -1.1600 h2         1 LSU       0.131700
     42 H15          2.3960    -1.2440     1.6800 h1         1 LSU       0.046700
     43 H16          2.8600    -3.3350     0.4900 h1         1 LSU       0.057700
     44 H17          0.8460    -2.8670    -1.4110 h1         1 LSU       0.122700
     45 H18         -0.2370     2.0790     3.2340 ha         1 LSU       0.221000
     46 H19          0.6520    -4.0540     0.9430 h1         1 LSU       0.057200
     47 H20          0.1230    -2.4570     1.5150 h1         1 LSU       0.057200
     48 H21          0.3470    -0.0630     1.9160 h4         1 LSU       0.196000
     49 H22          2.1550     4.2010     0.5870 hn         1 LSU       0.348500
     50 H23         -2.2470    -1.0410     1.6480 hn         1 LSU       0.343500
     51 H24          4.2830    -0.0430     1.3790 ho         1 LSU       0.519000
     52 H25          4.2250    -1.9540    -1.0300 ho         1 LSU       0.527000
     53 O6           2.8630     2.3460    -0.8010 o          1 LSU      -0.535000
@<TRIPOS>BOND
     1     1     2 1   
     2     1    29 1   
     3     1    30 1   
     4     2     3 1   
     5     2     5 1   
     6     2    31 1   
     7     3     4 2   
     8     3    20 1   
     9     5     6 1   
    10     5    32 1   
    11     5    33 1   
    12     6     7 1   
    13     6     8 1   
    14     6    34 1   
    15     7    35 1   
    16     7    36 1   
    17     7    37 1   
    18     8    38 1   
    19     8    39 1   
    20     8    40 1   
    21     9    11 1   
    22     9    18 1   
    23     9    26 1   
    24     9    41 1   
    25    10    18 1   
    26    10    19 1   
    27    10    53 2   
    28    11    12 1   
    29    11    22 1   
    30    11    42 1   
    31    12    14 1   
    32    12    24 1   
    33    12    43 1   
    34    13    15 1   
    35    13    19 1   
    36    13    25 2   
    37    14    16 1   
    38    14    26 1   
    39    14    44 1   
    40    15    17 2   
    41    15    45 1   
    42    16    27 1   
    43    16    46 1   
    44    16    47 1   
    45    17    18 1   
    46    17    48 1   
    47    19    49 1   
    48    20    28 1   
    49    20    50 1   
    50    21    28 2   
    51    22    51 1   
    52    23    28 2   
    53    24    52 1   
    54    27    28 1   
@<TRIPOS>SUBSTRUCTURE
     1 LSU         1 TEMP              0 ****  ****    0 ROOT
