@<TRIPOS>MOLECULE
LSU
   53    54     1     0     0
SMALL
bcc


@<TRIPOS>ATOM
      1 N           -1.5550     2.0430    -1.1690 n8         1 LSU      -0.876800
      2 CA          -2.3100     1.2240    -0.2570 c3         1 LSU       0.098500
      3 C           -2.1960    -0.2680    -0.5540 c          1 LSU       0.653100
      4 O           -2.0490    -0.7290    -1.6570 o          1 LSU      -0.520100
      5 CB          -3.7970     1.5980    -0.2770 c3         1 LSU      -0.067400
      6 CG          -4.0790     3.0730     0.0150 c3         1 LSU      -0.053700
      7 CD1         -5.5840     3.3180    -0.0330 c3         1 LSU      -0.089600
      8 CD2         -3.5020     3.5220     1.3530 c3         1 LSU      -0.089600
      9 C1           2.2410    -0.4640    -0.0970 c5         1 LSU       0.306500
     10 C2           2.2600     1.9790    -0.2610 c          1 LSU       0.836500
     11 C7           2.9210    -1.3240     0.9640 c5         1 LSU       0.059100
     12 C3           2.7000    -2.7240     0.3850 c5         1 LSU       0.089100
     13 C4           0.8140     3.3120     1.2520 c          1 LSU       0.737700
     14 C8           1.3130    -2.5870    -0.2480 c5         1 LSU       0.131100
     15 C5           0.4170     2.0690     1.8710 cc         1 LSU      -0.324200
     16 C9           0.2090    -3.1080     0.6430 c3         1 LSU       0.179400
     17 C6           0.9080     0.9130     1.4060 cd         1 LSU       0.041600
     18 N1           1.8010     0.8350     0.3710 n          1 LSU      -0.382000
     19 N3           1.7210     3.1450     0.2160 ns         1 LSU      -0.603500
     20 N3S         -2.2980    -1.0720     0.5670 ns         1 LSU      -0.689300
     21 O1S         -2.4630    -3.1630     1.8730 o          1 LSU      -0.608800
     22 O2           4.2570    -0.9460     1.0910 oh         1 LSU      -0.567800
     23 O2S         -3.3670    -3.1450    -0.4670 o          1 LSU      -0.608800
     24 O3           3.6200    -2.9970    -0.6370 oh         1 LSU      -0.574800
     25 O4           0.4250     4.4190     1.5640 o          1 LSU      -0.586500
     26 O7           1.1160    -1.1980    -0.5100 os         1 LSU      -0.404600
     27 O5          -1.0020    -3.1380    -0.1420 os         1 LSU      -0.532500
     28 S           -2.3890    -2.7320     0.4990 s6         1 LSU       1.582100
     29 H1          -0.5880     1.7510    -1.2030 hn         1 LSU       0.357800
     30 H2          -1.9120     1.9460    -2.1120 hn         1 LSU       0.357800
     31 H4          -1.9280     1.4010     0.7530 h1         1 LSU       0.070700
     32 H5          -4.2130     1.3400    -1.2570 hc         1 LSU       0.047200
     33 H6          -4.3280     0.9800     0.4550 hc         1 LSU       0.047200
     34 H7          -3.6130     3.6700    -0.7740 hc         1 LSU       0.066700
     35 H8          -6.1000     2.7430     0.7400 hc         1 LSU       0.033867
     36 H9          -5.8170     4.3710     0.1290 hc         1 LSU       0.033867
     37 H10         -6.0070     3.0300    -0.9980 hc         1 LSU       0.033867
     38 H11         -2.4140     3.4530     1.3770 hc         1 LSU       0.033867
     39 H12         -3.7590     4.5630     1.5530 hc         1 LSU       0.033867
     40 H13         -3.8990     2.9220     2.1760 hc         1 LSU       0.033867
     41 H14          2.9300    -0.2840    -0.9250 h2         1 LSU       0.131700
     42 H15          2.3900    -1.2470     1.9210 h1         1 LSU       0.046700
     43 H16          2.7220    -3.4950     1.1660 h1         1 LSU       0.057700
     44 H17          1.2910    -3.1420    -1.1920 h1         1 LSU       0.122700
     45 H18         -0.2820     2.0790     2.6940 ha         1 LSU       0.171000
     46 H19          0.4230    -4.1290     0.9590 h1         1 LSU       0.057200
     47 H20          0.0910    -2.4900     1.5370 h1         1 LSU       0.057200
     48 H21          0.6020    -0.0280     1.8390 h4         1 LSU       0.146000
     49 H22          2.0400     3.9860    -0.2500 hn         1 LSU       0.348500
     50 H23         -2.4450    -0.6660     1.4840 hn         1 LSU       0.343500
     51 H24          4.5940    -1.2590     1.9360 ho         1 LSU       0.420000
     52 H25          4.4990    -2.7550    -0.3180 ho         1 LSU       0.428000
     53 O6           3.0650     1.9630    -1.1660 o          1 LSU      -0.610500
@<TRIPOS>BOND
     1     1     2 1   
     2     1    29 1   
     3     1    30 1   
     4     2     3 1   
     5     2     5 1   
     6     2    31 1   
     7     3     4 2   
     8     3    20 1   
     9     5     6 1   
    10     5    32 1   
    11     5    33 1   
    12     6     7 1   
    13     6     8 1   
    14     6    34 1   
    15     7    35 1   
    16     7    36 1   
    17     7    37 1   
    18     8    38 1   
    19     8    39 1   
    20     8    40 1   
    21     9    11 1   
    22     9    18 1   
    23     9    26 1   
    24     9    41 1   
    25    10    18 1   
    26    10    19 1   
    27    10    53 2   
    28    11    12 1   
    29    11    22 1   
    30    11    42 1   
    31    12    14 1   
    32    12    24 1   
    33    12    43 1   
    34    13    15 1   
    35    13    19 1   
    36    13    25 2   
    37    14    16 1   
    38    14    26 1   
    39    14    44 1   
    40    15    17 2   
    41    15    45 1   
    42    16    27 1   
    43    16    46 1   
    44    16    47 1   
    45    17    18 1   
    46    17    48 1   
    47    19    49 1   
    48    20    28 1   
    49    20    50 1   
    50    21    28 2   
    51    22    51 1   
    52    23    28 2   
    53    24    52 1   
    54    27    28 1   
@<TRIPOS>SUBSTRUCTURE
     1 LSU         1 TEMP              0 ****  ****    0 ROOT
