@<TRIPOS>MOLECULE
LSV
   53    57     1     0     0
SMALL
abcg2


@<TRIPOS>ATOM
      1 C4           2.5990    -1.5900     0.0390 ca         1 LSV      -0.146300
      2 C5           1.2210    -1.5080     0.0410 ca         1 LSV      -0.082000
      3 C6           0.6250    -0.2440    -0.0050 ca         1 LSV      -0.027000
      4 C7           1.4330     0.9090    -0.0460 ca         1 LSV       0.191000
      5 C8           2.8210     0.8110    -0.0510 ca         1 LSV      -0.132000
      6 C9           3.3840    -0.4510    -0.0090 ca         1 LSV       0.103100
      7 C12          0.8970     2.9740     1.1070 c6         1 LSV       0.140800
      8 C13         -0.0450     4.1590     1.0080 c6         1 LSV       0.151600
      9 C3           3.5100    -2.7750     0.1210 c5         1 LSV      -0.049100
     10 C1           5.3220    -2.3950    -1.6070 c3         1 LSV      -0.096100
     11 C2           4.8910    -2.1430    -0.1710 c5         1 LSV       0.173000
     12 O10          4.7070    -0.7100    -0.0060 os         1 LSV      -0.319100
     13 N11          0.7610     2.1620    -0.0960 nh         1 LSV      -0.792400
     14 O14          0.1950     4.9180    -0.1560 os         1 LSV      -0.448000
     15 C15          0.0700     4.1290    -1.3180 c6         1 LSV       0.151600
     16 C16          1.0230     2.9500    -1.2940 c6         1 LSV       0.140800
     17 N17         -0.7460     0.0040    -0.0210 ns         1 LSV      -0.143000
     18 C18         -1.7900    -0.8550     0.0280 c          1 LSV       0.662300
     19 O19         -1.6720    -2.0700     0.1070 o          1 LSV      -0.581100
     20 C20         -3.1040    -0.2050    -0.0250 cc         1 LSV      -0.360800
     21 C21         -3.4440     1.1490    -0.1810 cc         1 LSV       0.416500
     22 N22         -4.7440     1.3630    -0.1960 nd         1 LSV      -0.577100
     23 N23         -5.2830     0.1500    -0.0480 na         1 LSV       0.115900
     24 C24         -4.3390    -0.8520     0.0600 cd         1 LSV       0.428500
     25 N25         -4.6970    -2.1300     0.2180 nd         1 LSV      -0.608000
     26 C26         -5.9780    -2.3910     0.2600 cc         1 LSV       0.379900
     27 C27         -6.9860    -1.4070     0.1500 cc         1 LSV      -0.221000
     28 C28         -6.6060    -0.1110    -0.0050 cd         1 LSV      -0.036000
     29 C29          5.9140    -2.6090     0.8450 c3         1 LSV       0.167600
     30 O30          7.1600    -2.0190     0.5820 oh         1 LSV      -0.645000
     31 H1           0.6180    -2.4020     0.0770 ha         1 LSV       0.154000
     32 H2           3.4370     1.7010    -0.0890 ha         1 LSV       0.131000
     33 H4           0.6300     2.3760     1.9810 h1         1 LSV       0.050950
     34 H5          -1.0830     3.7950     1.0210 h1         1 LSV       0.049200
     35 H6           0.0880     4.8210     1.8640 h1         1 LSV       0.049200
     36 H7           3.4740    -3.2280     1.1170 hc         1 LSV       0.065700
     37 H8           3.2680    -3.5600    -0.5960 hc         1 LSV       0.065700
     38 H9           6.2260    -1.8440    -1.8630 hc         1 LSV       0.050033
     39 H10          5.5160    -3.4580    -1.7590 hc         1 LSV       0.050033
     40 H11          4.5340    -2.0990    -2.3020 hc         1 LSV       0.050033
     41 H12         -0.9610     3.7570    -1.4210 h1         1 LSV       0.049200
     42 H13          0.2810     4.7700    -2.1740 h1         1 LSV       0.049200
     43 H14          2.0610     3.3110    -1.3300 h1         1 LSV       0.050950
     44 H15          0.8570     2.3310    -2.1770 h1         1 LSV       0.050950
     45 H16         -0.9140     1.0030    -0.0810 hn         1 LSV       0.176000
     46 H17         -2.7850     2.0000    -0.2930 h4         1 LSV       0.051800
     47 H18         -6.2600    -3.4290     0.3870 h4         1 LSV       0.037100
     48 H19         -8.0310    -1.6710     0.1920 ha         1 LSV       0.146000
     49 H20         -7.2770     0.7300    -0.0980 h4         1 LSV       0.166000
     50 H21          5.5460    -2.3590     1.8500 h1         1 LSV       0.026700
     51 H22          5.9560    -3.7050     0.7860 h1         1 LSV       0.026700
     52 H23          7.7960    -2.3700     1.2120 ho         1 LSV       0.443000
     53 H3           1.9300     3.3260     1.2480 h1         1 LSV       0.050950
@<TRIPOS>BOND
     1     1     2 ar  
     2     1     6 ar  
     3     1     9 1   
     4     2     3 ar  
     5     2    31 1   
     6     3     4 ar  
     7     3    17 1   
     8     4     5 ar  
     9     4    13 1   
    10     5     6 ar  
    11     5    32 1   
    12     6    12 1   
    13     7     8 1   
    14     7    13 1   
    15     7    33 1   
    16     7    53 1   
    17     8    14 1   
    18     8    34 1   
    19     8    35 1   
    20     9    11 1   
    21     9    36 1   
    22     9    37 1   
    23    10    11 1   
    24    10    38 1   
    25    10    39 1   
    26    10    40 1   
    27    11    12 1   
    28    11    29 1   
    29    13    16 1   
    30    14    15 1   
    31    15    16 1   
    32    15    41 1   
    33    15    42 1   
    34    16    43 1   
    35    16    44 1   
    36    17    18 1   
    37    17    45 1   
    38    18    19 2   
    39    18    20 1   
    40    20    21 1   
    41    20    24 2   
    42    21    22 2   
    43    21    46 1   
    44    22    23 1   
    45    23    24 1   
    46    23    28 1   
    47    24    25 1   
    48    25    26 2   
    49    26    27 1   
    50    26    47 1   
    51    27    28 2   
    52    27    48 1   
    53    28    49 1   
    54    29    30 1   
    55    29    50 1   
    56    29    51 1   
    57    30    52 1   
@<TRIPOS>SUBSTRUCTURE
     1 LSV         1 TEMP              0 ****  ****    0 ROOT
