@<TRIPOS>MOLECULE
LSV
   53    57     1     0     0
SMALL
No Charge or Current Charge


@<TRIPOS>ATOM
      1 C4           2.6680    -1.6110     0.0830 ca         1 LSV      -0.146300
      2 C5           1.2660    -1.5460     0.0930 ca         1 LSV      -0.082000
      3 C6           0.6430    -0.2750     0.0150 ca         1 LSV      -0.027000
      4 C7           1.4430     0.8960    -0.0680 ca         1 LSV       0.191000
      5 C8           2.8480     0.7930    -0.0700 ca         1 LSV      -0.132000
      6 C9           3.4310    -0.4750    -0.0010 ca         1 LSV       0.103100
      7 C12          0.5730     2.9080     1.1450 c6         1 LSV       0.140800
      8 C13         -0.3940     4.1150     0.9490 c6         1 LSV       0.151600
      9 C3           3.5340    -2.8230     0.1790 c5         1 LSV      -0.049100
     10 C1           5.3090    -2.4030    -1.6560 c3         1 LSV      -0.096100
     11 C2           4.9330    -2.1600    -0.1690 c5         1 LSV       0.173000
     12 O10          4.7770    -0.7050     0.0130 os         1 LSV      -0.319100
     13 N11          0.8310     2.1710    -0.1330 nh         1 LSV      -0.792400
     14 O14          0.0630     4.9700    -0.1260 os         1 LSV      -0.448000
     15 C15          0.1590     4.2690    -1.3880 c6         1 LSV       0.151600
     16 C16          1.1560     3.0770    -1.2810 c6         1 LSV       0.140800
     17 N17         -0.7680    -0.0970    -0.0010 ns         1 LSV      -0.143000
     18 C18         -1.8350    -0.9700     0.1360 c          1 LSV       0.662300
     19 O19         -1.7030    -2.1700     0.3360 o          1 LSV      -0.581100
     20 C20         -3.1380    -0.2980     0.0220 cc         1 LSV      -0.360800
     21 C21         -3.3560     1.0850    -0.2180 cc         1 LSV       0.416500
     22 N22         -4.6310     1.4620    -0.2810 nd         1 LSV      -0.577100
     23 N23         -5.2340     0.2420    -0.0690 na         1 LSV       0.115900
     24 C24         -4.3800    -0.8340     0.1160 cd         1 LSV       0.428500
     25 N25         -4.6580    -2.1660     0.3470 nd         1 LSV      -0.608000
     26 C26         -5.9840    -2.3100     0.3730 cc         1 LSV       0.379900
     27 C27         -6.9640    -1.2600     0.1930 cc         1 LSV      -0.221000
     28 C28         -6.6130     0.0670    -0.0370 cd         1 LSV      -0.036000
     29 C29          6.0680    -2.6740     0.7800 c3         1 LSV       0.167600
     30 O30          7.3660    -2.1470     0.4420 oh         1 LSV      -0.645000
     31 H1           0.6950    -2.4670     0.1560 ha         1 LSV       0.154000
     32 H2           3.4720     1.6790    -0.1220 ha         1 LSV       0.131000
     33 H4           0.1370     2.2290     1.8930 h1         1 LSV       0.050950
     34 H5          -1.4040     3.7510     0.7150 h1         1 LSV       0.049200
     35 H6          -0.4510     4.7020     1.8760 h1         1 LSV       0.049200
     36 H7           3.5150    -3.2550     1.1860 hc         1 LSV       0.065700
     37 H8           3.2490    -3.6120    -0.5270 hc         1 LSV       0.065700
     38 H9           6.2010    -1.8350    -1.9470 hc         1 LSV       0.050033
     39 H10          5.5120    -3.4640    -1.8440 hc         1 LSV       0.050033
     40 H11          4.4950    -2.0980    -2.3240 hc         1 LSV       0.050033
     41 H12         -0.8370     3.9000    -1.6730 h1         1 LSV       0.049200
     42 H13          0.4970     4.9700    -2.1640 h1         1 LSV       0.049200
     43 H14          2.1730     3.4800    -1.1670 h1         1 LSV       0.050950
     44 H15          1.1310     2.5140    -2.2250 h1         1 LSV       0.050950
     45 H16         -1.0280     0.8700    -0.1420 hn         1 LSV       0.176000
     46 H17         -2.6020     1.8490    -0.3530 h4         1 LSV       0.051800
     47 H18         -6.2980    -3.3300     0.5500 h4         1 LSV       0.037100
     48 H19         -8.0110    -1.5410     0.2430 ha         1 LSV       0.146000
     49 H20         -7.2700     0.9160    -0.1830 h4         1 LSV       0.166000
     50 H21          5.8090    -2.4020     1.8120 h1         1 LSV       0.026700
     51 H22          6.0900    -3.7710     0.7290 h1         1 LSV       0.026700
     52 H23          7.9980    -2.4890     1.1130 ho         1 LSV       0.443000
     53 H3           1.5220     3.2800     1.5580 h1         1 LSV       0.050950
@<TRIPOS>BOND
     1     1     2 ar  
     2     1     6 ar  
     3     1     9 1   
     4     2     3 ar  
     5     2    31 1   
     6     3     4 ar  
     7     3    17 1   
     8     4     5 ar  
     9     4    13 1   
    10     5     6 ar  
    11     5    32 1   
    12     6    12 1   
    13     7     8 1   
    14     7    13 1   
    15     7    33 1   
    16     7    53 1   
    17     8    14 1   
    18     8    34 1   
    19     8    35 1   
    20     9    11 1   
    21     9    36 1   
    22     9    37 1   
    23    10    11 1   
    24    10    38 1   
    25    10    39 1   
    26    10    40 1   
    27    11    12 1   
    28    11    29 1   
    29    13    16 1   
    30    14    15 1   
    31    15    16 1   
    32    15    41 1   
    33    15    42 1   
    34    16    43 1   
    35    16    44 1   
    36    17    18 1   
    37    17    45 1   
    38    18    19 2   
    39    18    20 1   
    40    20    21 1   
    41    20    24 2   
    42    21    22 2   
    43    21    46 1   
    44    22    23 1   
    45    23    24 1   
    46    23    28 1   
    47    24    25 1   
    48    25    26 2   
    49    26    27 1   
    50    26    47 1   
    51    27    28 2   
    52    27    48 1   
    53    28    49 1   
    54    29    30 1   
    55    29    50 1   
    56    29    51 1   
    57    30    52 1   
@<TRIPOS>SUBSTRUCTURE
     1 LSV         1 TEMP              0 ****  ****    0 ROOT
