@<TRIPOS>MOLECULE
LSW
   68    70     1     0     0
SMALL
bcc


@<TRIPOS>ATOM
      1 C           -0.1630     2.0630    -2.3300 c          1 LSW       0.932600
      2 N           -0.6700     1.6250     0.0810 n7         1 LSW      -0.771200
      3 O            0.1170     3.2240    -1.9780 o          1 LSW      -0.843800
      4 CA          -0.6070     1.0420    -1.2520 c3         1 LSW       0.034500
      5 CB          -1.9550     0.4270    -1.6240 c3         1 LSW      -0.056400
      6 NAA         -0.4040     7.4860     3.2900 n8         1 LSW      -0.893800
      7 OAC          4.8470     1.2760     2.0360 o          1 LSW      -0.839300
      8 OAD          0.4810    -0.3360     1.8090 o          1 LSW      -0.668100
      9 OAF          5.2820    -0.5630     3.2200 o          1 LSW      -0.839300
     10 CAG         -5.9390    -2.5940    -2.3080 ca         1 LSW      -0.161000
     11 CAH         -4.7150    -2.8850    -2.8980 ca         1 LSW      -0.140500
     12 CAI         -5.9840    -1.7370    -1.2170 ca         1 LSW      -0.140500
     13 CAJ          0.3300    -2.6190    -3.0510 ca         1 LSW      -0.116000
     14 CAK          1.2800    -1.5890    -2.9650 ca         1 LSW      -0.152000
     15 CAL         -3.5490    -2.3200    -2.4000 ca         1 LSW      -0.130000
     16 CAM         -4.8130    -1.1760    -0.7220 ca         1 LSW      -0.130000
     17 CAN          0.1750    -3.5410    -2.0330 ca         1 LSW      -0.183000
     18 CAO          2.1030    -1.4730    -1.8630 ca         1 LSW      -0.059000
     19 CAP          2.0780    -3.6680     1.0140 cc         1 LSW      -0.140100
     20 CAQ         -0.4070     6.5560     2.1690 c3         1 LSW       0.142800
     21 CAR          0.0710     5.1760     2.5950 c3         1 LSW      -0.076400
     22 CAS          0.0810     4.1790     1.4440 c3         1 LSW      -0.075400
     23 CAT         -2.3180    -0.8140    -0.8010 c3         1 LSW      -0.059100
     24 CAU          0.5350     2.7910     1.8710 c3         1 LSW      -0.054400
     25 CAW          3.7780    -1.7660     0.9870 c3         1 LSW      -0.007200
     26 NAX          2.5280     0.3710     1.1430 ns         1 LSW      -0.528900
     27 CBB          4.6030     0.1190     2.4310 c          1 LSW       0.920600
     28 CBC          1.1970     0.4870     1.2530 c          1 LSW       0.626100
     29 CBD         -3.5790    -1.4580    -1.3030 ca         1 LSW      -0.033300
     30 CBE          2.6590    -2.5790     0.4280 cd         1 LSW      -0.085400
     31 CBF          1.0030    -3.4120    -0.9190 ca         1 LSW      -0.053200
     32 CBG          1.9780    -2.3940    -0.8180 ca         1 LSW      -0.085800
     33 CBI          0.6190     1.7980     0.7060 c3         1 LSW       0.099500
     34 CBJ          3.3420    -0.5790     1.8620 c3         1 LSW      -0.035300
     35 OXT         -0.1050     1.6170    -3.4970 o          1 LSW      -0.843800
     36 NXZ          1.0820    -4.1630     0.2160 na         1 LSW      -0.189400
     37 HN          -1.2140     1.0200     0.6850 hn         1 LSW       0.331800
     38 HA           0.1240     0.2190    -1.3010 h1         1 LSW       0.026700
     39 HB          -2.7490     1.1770    -1.5300 hc         1 LSW       0.045700
     40 HBA         -1.9100     0.1410    -2.6750 hc         1 LSW       0.045700
     41 HNAA         0.5530     7.6600     3.5760 hn         1 LSW       0.321300
     42 HNAB        -0.7620     8.3830     2.9870 hn         1 LSW       0.321300
     43 HAG         -6.8490    -3.0350    -2.6940 ha         1 LSW       0.105000
     44 HAH         -4.6680    -3.5550    -3.7480 ha         1 LSW       0.110000
     45 HAI         -6.9320    -1.5070    -0.7470 ha         1 LSW       0.110000
     46 HAJ         -0.3030    -2.6840    -3.9280 ha         1 LSW       0.110000
     47 HAK          1.3350    -0.8520    -3.7550 ha         1 LSW       0.155000
     48 HAL         -2.5970    -2.5530    -2.8630 ha         1 LSW       0.136000
     49 HAM         -4.8590    -0.5080     0.1320 ha         1 LSW       0.136000
     50 HAN         -0.5650    -4.3290    -2.0970 ha         1 LSW       0.105000
     51 HAO          2.8240    -0.6670    -1.7990 ha         1 LSW       0.147000
     52 HAP          2.3070    -4.1380     1.9580 h4         1 LSW       0.148000
     53 HAQ         -1.4330     6.4760     1.7970 h1         1 LSW       0.029700
     54 HAQA         0.2000     6.8940     1.3170 h1         1 LSW       0.029700
     55 HAR          1.0800     5.2580     3.0160 hc         1 LSW       0.032700
     56 HARA        -0.5700     4.8110     3.4040 hc         1 LSW       0.032700
     57 HAS         -0.9160     4.1070     1.0030 hc         1 LSW       0.063700
     58 HASA         0.7330     4.5420     0.6430 hc         1 LSW       0.063700
     59 HAT         -1.4830    -1.5190    -0.8570 hc         1 LSW       0.059200
     60 HATA        -2.4440    -0.5600     0.2540 hc         1 LSW       0.059200
     61 HAU          1.5190     2.8600     2.3490 hc         1 LSW       0.032700
     62 HAUA        -0.1450     2.3970     2.6350 hc         1 LSW       0.032700
     63 HAW          4.4230    -2.4030     1.5950 hc         1 LSW       0.045200
     64 HAWA         4.4010    -1.3850     0.1700 hc         1 LSW       0.045200
     65 HNAX         3.0410     1.1610     0.7810 hn         1 LSW       0.329500
     66 HBI          1.3000     2.2190    -0.0380 h1         1 LSW       0.096700
     67 HBJ          2.7530    -0.9720     2.6950 h1         1 LSW       0.054700
     68 HNXZ         0.5320    -4.9790     0.4210 hn         1 LSW       0.273700
@<TRIPOS>BOND
     1     1     3 1   
     2     1     4 1   
     3     1    35 1   
     4     2     4 1   
     5     2    33 1   
     6     2    37 1   
     7     4     5 1   
     8     4    38 1   
     9     5    23 1   
    10     5    39 1   
    11     5    40 1   
    12     6    20 1   
    13     6    41 1   
    14     6    42 1   
    15     7    27 1   
    16     8    28 2   
    17     9    27 1   
    18    10    11 ar  
    19    10    12 ar  
    20    10    43 1   
    21    11    15 ar  
    22    11    44 1   
    23    12    16 ar  
    24    12    45 1   
    25    13    14 ar  
    26    13    17 ar  
    27    13    46 1   
    28    14    18 ar  
    29    14    47 1   
    30    15    29 ar  
    31    15    48 1   
    32    16    29 ar  
    33    16    49 1   
    34    17    31 ar  
    35    17    50 1   
    36    18    32 ar  
    37    18    51 1   
    38    19    30 2   
    39    19    36 1   
    40    19    52 1   
    41    20    21 1   
    42    20    53 1   
    43    20    54 1   
    44    21    22 1   
    45    21    55 1   
    46    21    56 1   
    47    22    24 1   
    48    22    57 1   
    49    22    58 1   
    50    23    29 1   
    51    23    59 1   
    52    23    60 1   
    53    24    33 1   
    54    24    61 1   
    55    24    62 1   
    56    25    30 1   
    57    25    34 1   
    58    25    63 1   
    59    25    64 1   
    60    26    28 1   
    61    26    34 1   
    62    26    65 1   
    63    27    34 1   
    64    28    33 1   
    65    30    32 1   
    66    31    32 ar  
    67    31    36 1   
    68    33    66 1   
    69    34    67 1   
    70    36    68 1   
@<TRIPOS>SUBSTRUCTURE
     1 LSW         1 TEMP              0 ****  ****    0 ROOT
