@<TRIPOS>MOLECULE
LSW
   68    70     1     0     0
SMALL
No Charge or Current Charge


@<TRIPOS>ATOM
      1 C            0.9610     1.2900    -1.8940 c          1 LSW       0.722000
      2 N           -0.3270     1.4590     0.3700 n7         1 LSW      -0.826400
      3 O            0.4920     1.8330    -2.8890 o          1 LSW      -0.738500
      4 CA          -0.0160     0.6120    -0.8380 c3         1 LSW       0.034500
      5 CB          -1.3490     0.1430    -1.4850 c3         1 LSW      -0.056400
      6 NAA         -1.5790     7.4760     3.3540 n8         1 LSW      -1.004200
      7 OAC          5.7370     0.5640     0.7630 o          1 LSW      -0.734000
      8 OAD          1.4500     0.2280     2.8680 o          1 LSW      -0.668100
      9 OAF          5.6460    -0.1780     2.7800 o          1 LSW      -0.734000
     10 CAG         -6.0030    -1.8320    -2.4290 ca         1 LSW      -0.143000
     11 CAH         -4.8070    -2.3610    -2.9410 ca         1 LSW      -0.122500
     12 CAI         -5.9690    -0.9660    -1.3240 ca         1 LSW      -0.122500
     13 CAJ          0.0740    -3.1880    -3.2740 ca         1 LSW      -0.098000
     14 CAK          1.2070    -2.3740    -3.5190 ca         1 LSW      -0.134000
     15 CAL         -3.5780    -2.0240    -2.3470 ca         1 LSW      -0.112000
     16 CAM         -4.7400    -0.6290    -0.7300 ca         1 LSW      -0.112000
     17 CAN         -0.1680    -3.7030    -1.9820 ca         1 LSW      -0.165000
     18 CAO          2.1110    -2.0730    -2.4770 ca         1 LSW      -0.041000
     19 CAP          1.8470    -3.2120     1.0270 cc         1 LSW      -0.190100
     20 CAQ         -1.2060     6.5450     2.2720 c3         1 LSW       0.142800
     21 CAR         -0.6120     5.2340     2.8300 c3         1 LSW      -0.076400
     22 CAS         -0.2080     4.2380     1.7200 c3         1 LSW      -0.075400
     23 CAT         -2.2020    -0.7930    -0.5930 c3         1 LSW      -0.059100
     24 CAU          0.3860     2.9200     2.2730 c3         1 LSW      -0.054400
     25 CAW          3.8460    -1.7690     0.2810 c3         1 LSW      -0.007200
     26 NAX          2.7930     0.3830     1.0270 ns         1 LSW      -0.461900
     27 CBB          5.1760    -0.0570     1.6570 c          1 LSW       0.710000
     28 CBC          1.7000     0.7510     1.7850 c          1 LSW       0.559100
     29 CBD         -3.5350    -1.1570    -1.2380 ca         1 LSW      -0.033300
     30 CBE          2.5420    -2.4990     0.0560 cd         1 LSW      -0.085400
     31 CBF          0.7430    -3.3820    -0.9680 ca         1 LSW      -0.053200
     32 CBG          1.8410    -2.6050    -1.2070 ca         1 LSW      -0.085800
     33 CBI          0.8490     1.9230     1.1770 c3         1 LSW       0.099500
     34 CBJ          3.7720    -0.6770     1.3760 c3         1 LSW      -0.035300
     35 OXT          2.1660     1.2540    -1.6700 o          1 LSW      -0.738500
     36 NXZ          0.7260    -3.7520     0.3630 na         1 LSW      -0.239700
     37 HN          -0.9390     0.9190     0.9910 hn         1 LSW       0.387000
     38 HA           0.5000    -0.2970    -0.5040 h1         1 LSW       0.026700
     39 HB          -1.9460     1.0200    -1.7650 hc         1 LSW       0.045700
     40 HBA         -1.1160    -0.3890    -2.4160 hc         1 LSW       0.045700
     41 HNAA        -0.7320     7.7430     3.8690 hn         1 LSW       0.376500
     42 HNAB        -1.9000     8.3590     2.9380 hn         1 LSW       0.376500
     43 HAG         -6.9540    -2.0920    -2.8890 ha         1 LSW       0.087000
     44 HAH         -4.8300    -3.0310    -3.7970 ha         1 LSW       0.092000
     45 HAI         -6.8950    -0.5550    -0.9270 ha         1 LSW       0.092000
     46 HAJ         -0.6130    -3.4160    -4.0850 ha         1 LSW       0.092000
     47 HAK          1.3830    -1.9770    -4.5160 ha         1 LSW       0.137000
     48 HAL         -2.6580    -2.4370    -2.7500 ha         1 LSW       0.118000
     49 HAM         -4.7250     0.0440     0.1240 ha         1 LSW       0.118000
     50 HAN         -1.0360    -4.3260    -1.7810 ha         1 LSW       0.087000
     51 HAO          2.9820    -1.4480    -2.6560 ha         1 LSW       0.129000
     52 HAP          2.0540    -3.3730     2.0810 h4         1 LSW       0.198000
     53 HAQ         -2.1010     6.3220     1.6750 h1         1 LSW       0.029700
     54 HAQA        -0.4680     7.0370     1.6230 h1         1 LSW       0.029700
     55 HAR          0.2690     5.4660     3.4420 hc         1 LSW       0.032700
     56 HARA        -1.3470     4.7560     3.4900 hc         1 LSW       0.032700
     57 HAS         -1.0890     4.0130     1.1060 hc         1 LSW       0.063700
     58 HASA         0.5270     4.7150     1.0580 hc         1 LSW       0.063700
     59 HAT         -1.6310    -1.7040    -0.3810 hc         1 LSW       0.059200
     60 HATA        -2.3800    -0.3160     0.3780 hc         1 LSW       0.059200
     61 HAU          1.2490     3.1670     2.9040 hc         1 LSW       0.032700
     62 HAUA        -0.3500     2.4320     2.9240 hc         1 LSW       0.032700
     63 HAW          4.6160    -2.4950     0.5670 hc         1 LSW       0.045200
     64 HAWA         4.1950    -1.3130    -0.6530 hc         1 LSW       0.045200
     65 HNAX         2.8570     0.8110     0.1040 hn         1 LSW       0.329500
     66 HBI          1.5400     2.4840     0.5330 h1         1 LSW       0.096700
     67 HBJ          3.4500    -1.1620     2.3060 h1         1 LSW       0.054700
     68 HNXZ         0.0120    -4.3320     0.7920 hn         1 LSW       0.324000
@<TRIPOS>BOND
     1     1     3 1   
     2     1     4 1   
     3     1    35 1   
     4     2     4 1   
     5     2    33 1   
     6     2    37 1   
     7     4     5 1   
     8     4    38 1   
     9     5    23 1   
    10     5    39 1   
    11     5    40 1   
    12     6    20 1   
    13     6    41 1   
    14     6    42 1   
    15     7    27 1   
    16     8    28 2   
    17     9    27 1   
    18    10    11 ar  
    19    10    12 ar  
    20    10    43 1   
    21    11    15 ar  
    22    11    44 1   
    23    12    16 ar  
    24    12    45 1   
    25    13    14 ar  
    26    13    17 ar  
    27    13    46 1   
    28    14    18 ar  
    29    14    47 1   
    30    15    29 ar  
    31    15    48 1   
    32    16    29 ar  
    33    16    49 1   
    34    17    31 ar  
    35    17    50 1   
    36    18    32 ar  
    37    18    51 1   
    38    19    30 2   
    39    19    36 1   
    40    19    52 1   
    41    20    21 1   
    42    20    53 1   
    43    20    54 1   
    44    21    22 1   
    45    21    55 1   
    46    21    56 1   
    47    22    24 1   
    48    22    57 1   
    49    22    58 1   
    50    23    29 1   
    51    23    59 1   
    52    23    60 1   
    53    24    33 1   
    54    24    61 1   
    55    24    62 1   
    56    25    30 1   
    57    25    34 1   
    58    25    63 1   
    59    25    64 1   
    60    26    28 1   
    61    26    34 1   
    62    26    65 1   
    63    27    34 1   
    64    28    33 1   
    65    30    32 1   
    66    31    32 ar  
    67    31    36 1   
    68    33    66 1   
    69    34    67 1   
    70    36    68 1   
@<TRIPOS>SUBSTRUCTURE
     1 LSW         1 TEMP              0 ****  ****    0 ROOT
