@<TRIPOS>MOLECULE
LSX
   36    36     1     0     0
SMALL
abcg2


@<TRIPOS>ATOM
      1 C2          -2.3460    -0.0790     1.2740 ca         1 LSX      -0.080500
      2 C3          -1.4180     0.0930     0.2530 ca         1 LSX       0.036700
      3 C4          -1.8800     0.7000    -0.9180 ca         1 LSX      -0.080500
      4 C6          -4.0980     0.9620    -0.0060 ca         1 LSX       0.047100
      5 C7          -0.0100    -0.3930     0.3920 c3         1 LSX      -0.323400
      6 C14          3.4410     1.2910    -0.2420 c          1 LSX       0.622100
      7 C17          5.8430     1.9120    -0.2380 c3         1 LSX       0.092300
      8 O15          3.1910     2.0830    -1.1410 o          1 LSX      -0.622100
      9 N16          4.6880     1.2300     0.2900 n          1 LSX      -0.311300
     10 O18          4.9870     0.1900     1.1330 oh         1 LSX      -0.419100
     11 C12          1.0060     0.6060    -0.1750 c3         1 LSX      -0.009400
     12 P8           0.1280    -2.1020    -0.3960 p5         1 LSX       1.272500
     13 O11          1.5440    -2.6030    -0.0590 o          1 LSX      -0.913500
     14 O10         -0.9750    -2.9270     0.2740 o          1 LSX      -0.913500
     15 C5          -3.1890     1.1340    -1.0490 ca         1 LSX      -0.173000
     16 C1          -3.6660     0.3480     1.1650 ca         1 LSX      -0.173000
     17 O19         -5.3570     1.4190    -0.2170 os         1 LSX      -0.367100
     18 C20         -6.2910     1.3020     0.8340 c3         1 LSX       0.166900
     19 H1          -2.0310    -0.5520     2.1970 ha         1 LSX       0.118000
     20 H2          -1.2020     0.8390    -1.7490 ha         1 LSX       0.118000
     21 H3           0.1890    -0.5210     1.4640 hc         1 LSX       0.029700
     22 H5           2.6840    -0.6780     0.1590 hc         1 LSX       0.098700
     23 H6           2.4200     0.4670     1.4430 hc         1 LSX       0.098700
     24 H7           5.5190     2.7390    -0.8620 h1         1 LSX       0.028700
     25 H8           6.4420     2.3130     0.5800 h1         1 LSX       0.028700
     26 H9           6.4650     1.2420    -0.8350 h1         1 LSX       0.028700
     27 H10          4.9670     0.5530     2.0290 ho         1 LSX       0.422000
     28 H11          1.0030     0.5360    -1.2650 hc         1 LSX       0.023200
     29 H12          0.7000     1.6290     0.0670 hc         1 LSX       0.023200
     30 H14         -3.5180     1.6070    -1.9680 ha         1 LSX       0.081000
     31 H15         -4.3370     0.1930     2.0000 ha         1 LSX       0.081000
     32 H16         -6.4770     0.2600     1.1080 h1         1 LSX       0.014033
     33 H17         -5.9730     1.8450     1.7290 h1         1 LSX       0.014033
     34 H18         -7.2200     1.7390     0.4750 h1         1 LSX       0.014033
     35 O9          -0.0900    -1.8570    -1.8950 o          1 LSX      -0.913500
     36 C13          2.4120     0.3630     0.3530 c3         1 LSX      -0.160400
@<TRIPOS>BOND
     1     1     2 ar  
     2     1    16 ar  
     3     1    19 1   
     4     2     3 ar  
     5     2     5 1   
     6     3    15 ar  
     7     3    20 1   
     8     4    15 ar  
     9     4    16 ar  
    10     4    17 1   
    11     5    11 1   
    12     5    12 1   
    13     5    21 1   
    14     6     8 2   
    15     6     9 1   
    16     6    36 1   
    17     7     9 1   
    18     7    24 1   
    19     7    25 1   
    20     7    26 1   
    21     9    10 1   
    22    10    27 1   
    23    11    28 1   
    24    11    29 1   
    25    11    36 1   
    26    12    13 1   
    27    12    14 1   
    28    12    35 1   
    29    15    30 1   
    30    16    31 1   
    31    17    18 1   
    32    18    32 1   
    33    18    33 1   
    34    18    34 1   
    35    22    36 1   
    36    23    36 1   
@<TRIPOS>SUBSTRUCTURE
     1 LSX         1 TEMP              0 ****  ****    0 ROOT
