@<TRIPOS>MOLECULE
LSX
   36    36     1     0     0
SMALL
No Charge or Current Charge


@<TRIPOS>ATOM
      1 C2          -2.3040     0.0760     1.3230 ca         1 LSX      -0.080500
      2 C3          -1.4820    -0.0470     0.1840 ca         1 LSX       0.036700
      3 C4          -2.0000     0.3240    -1.0740 ca         1 LSX      -0.080500
      4 C6          -4.1320     0.9260    -0.0540 ca         1 LSX       0.047100
      5 C7          -0.0450    -0.5520     0.3240 c3         1 LSX      -0.323400
      6 C14          3.4340     1.3810    -0.1540 c          1 LSX       0.622100
      7 C17          5.8430     2.1990    -0.0930 c3         1 LSX       0.092300
      8 O15          3.0910     2.3560    -0.8150 o          1 LSX      -0.622100
      9 N16          4.7860     1.2300     0.2610 n          1 LSX      -0.311300
     10 O18          5.2140     0.0840     1.0260 oh         1 LSX      -0.419100
     11 C12          0.9670     0.5090    -0.1940 c3         1 LSX      -0.009400
     12 P8           0.1660    -2.2500    -0.4000 p5         1 LSX       1.272500
     13 O11          1.3530    -2.8980     0.2280 o          1 LSX      -0.913500
     14 O10         -1.0520    -3.0580    -0.1050 o          1 LSX      -0.913500
     15 C5          -3.3160     0.8060    -1.1900 ca         1 LSX      -0.173000
     16 C1          -3.6210     0.5580     1.2090 ca         1 LSX      -0.173000
     17 O19         -5.4140     1.4060    -0.2270 os         1 LSX      -0.367100
     18 C20         -6.3280     1.5670     0.8740 c3         1 LSX       0.166900
     19 H1          -1.9220    -0.2020     2.3020 ha         1 LSX       0.118000
     20 H2          -1.3840     0.2360    -1.9650 ha         1 LSX       0.118000
     21 H3           0.1650    -0.7050     1.3880 hc         1 LSX       0.029700
     22 H5           2.8360    -0.6650    -0.1050 hc         1 LSX       0.098700
     23 H6           2.5110     0.1530     1.3390 hc         1 LSX       0.098700
     24 H7           5.5940     3.1850     0.3200 h1         1 LSX       0.028700
     25 H8           6.8090     1.8750     0.3140 h1         1 LSX       0.028700
     26 H9           5.9240     2.2750    -1.1850 h1         1 LSX       0.028700
     27 H10          5.1440     0.3570     1.9690 ho         1 LSX       0.422000
     28 H11          0.9270     0.5600    -1.2890 hc         1 LSX       0.023200
     29 H12          0.6490     1.4920     0.1750 hc         1 LSX       0.023200
     30 H14         -3.7030     1.0870    -2.1660 ha         1 LSX       0.081000
     31 H15         -4.2240     0.6380     2.1090 ha         1 LSX       0.081000
     32 H16         -6.5160     0.6050     1.3670 h1         1 LSX       0.014033
     33 H17         -5.9250     2.2710     1.6140 h1         1 LSX       0.014033
     34 H18         -7.2870     1.9600     0.5160 h1         1 LSX       0.014033
     35 O9           0.3620    -2.1410    -1.8750 o          1 LSX      -0.913500
     36 C13          2.4320     0.2860     0.2550 c3         1 LSX      -0.160400
@<TRIPOS>BOND
     1     1     2 ar  
     2     1    16 ar  
     3     1    19 1   
     4     2     3 ar  
     5     2     5 1   
     6     3    15 ar  
     7     3    20 1   
     8     4    15 ar  
     9     4    16 ar  
    10     4    17 1   
    11     5    11 1   
    12     5    12 1   
    13     5    21 1   
    14     6     8 2   
    15     6     9 1   
    16     6    36 1   
    17     7     9 1   
    18     7    24 1   
    19     7    25 1   
    20     7    26 1   
    21     9    10 1   
    22    10    27 1   
    23    11    28 1   
    24    11    29 1   
    25    11    36 1   
    26    12    13 1   
    27    12    14 1   
    28    12    35 1   
    29    15    30 1   
    30    16    31 1   
    31    17    18 1   
    32    18    32 1   
    33    18    33 1   
    34    18    34 1   
    35    22    36 1   
    36    23    36 1   
@<TRIPOS>SUBSTRUCTURE
     1 LSX         1 TEMP              0 ****  ****    0 ROOT
