@<TRIPOS>MOLECULE
LSY
   26    25     1     0     0
SMALL
No Charge or Current Charge


@<TRIPOS>ATOM
      1 C01         -3.2530     1.2900    -0.9310 c3         1 LSY       0.091800
      2 C03         -3.9500    -0.1110     1.0680 c3         1 LSY       0.091800
      3 C04         -1.6140    -0.2830     0.1880 c          1 LSY       0.635600
      4 C08          1.6120     0.2760     0.1600 c          1 LSY       0.635600
      5 C11          3.9520     0.1730     1.0420 c3         1 LSY       0.091800
      6 C12          3.2480    -1.3790    -0.8410 c3         1 LSY       0.091800
      7 N02         -2.9010     0.2880     0.1030 n          1 LSY      -0.415300
      8 N06         -0.6940     0.1430    -0.7570 ns         1 LSY      -0.357000
      9 N07          0.6890    -0.2220    -0.7450 ns         1 LSY      -0.357000
     10 N10          2.8990    -0.2990     0.1150 n          1 LSY      -0.415300
     11 O05         -1.3310    -1.1160     1.0390 o          1 LSY      -0.626100
     12 O09          1.3320     1.1720     0.9450 o          1 LSY      -0.626100
     13 H013        -4.3020     1.5970    -0.8350 h1         1 LSY       0.041617
     14 H011        -2.6190     2.1790    -0.8200 h1         1 LSY       0.041617
     15 H012        -3.1080     0.8600    -1.9310 h1         1 LSY       0.041617
     16 H033        -3.6080     0.0940     2.0910 h1         1 LSY       0.041617
     17 H031        -4.8800     0.4440     0.8910 h1         1 LSY       0.041617
     18 H032        -4.1550    -1.1850     0.9670 h1         1 LSY       0.041617
     19 H112         4.1580     1.2350     0.8550 h1         1 LSY       0.041617
     20 H113         3.6130     0.0510     2.0790 h1         1 LSY       0.041617
     21 H111         4.8800    -0.3960     0.9070 h1         1 LSY       0.041617
     22 H121         2.6140    -2.2570    -0.6580 h1         1 LSY       0.041617
     23 H123         3.0980    -1.0280    -1.8700 h1         1 LSY       0.041617
     24 H122         4.2970    -1.6770    -0.7250 h1         1 LSY       0.041617
     25 H1          -0.9740     0.8680    -1.4090 hn         1 LSY       0.329500
     26 H071         0.9670    -0.9950    -1.3400 hn         1 LSY       0.329500
@<TRIPOS>BOND
     1     1     7 1   
     2     1    13 1   
     3     1    14 1   
     4     1    15 1   
     5     2     7 1   
     6     2    16 1   
     7     2    17 1   
     8     2    18 1   
     9     3     7 1   
    10     3     8 1   
    11     3    11 2   
    12     4     9 1   
    13     4    10 1   
    14     4    12 2   
    15     5    10 1   
    16     5    19 1   
    17     5    20 1   
    18     5    21 1   
    19     6    10 1   
    20     6    22 1   
    21     6    23 1   
    22     6    24 1   
    23     8     9 1   
    24     8    25 1   
    25     9    26 1   
@<TRIPOS>SUBSTRUCTURE
     1 LSY         1 TEMP              0 ****  ****    0 ROOT
