@<TRIPOS>MOLECULE
LSY
   26    25     1     0     0
SMALL
bcc


@<TRIPOS>ATOM
      1 C01         -3.0990     1.3540    -0.7530 c3         1 LSY       0.091800
      2 C03         -3.5990    -0.1980     1.1230 c3         1 LSY       0.091800
      3 C04         -1.4940    -0.3590    -0.0290 c          1 LSY       0.769600
      4 C08          1.4240     0.2390     0.0390 c          1 LSY       0.769600
      5 C11          3.6110     0.2000     1.0780 c3         1 LSY       0.091800
      6 C12          3.1180    -1.3390    -0.7880 c3         1 LSY       0.091800
      7 N02         -2.7350     0.1860     0.0250 n          1 LSY      -0.482300
      8 N06         -0.6730     0.1270    -1.0320 ns         1 LSY      -0.424000
      9 N07          0.6450    -0.2180    -1.0070 ns         1 LSY      -0.424000
     10 N10          2.6380    -0.3530     0.1580 n          1 LSY      -0.482300
     11 O05         -1.1220    -1.2590     0.7080 o          1 LSY      -0.626100
     12 O09          1.0310     1.1420     0.7630 o          1 LSY      -0.626100
     13 H013        -4.1670     1.5260    -0.6500 h1         1 LSY       0.041617
     14 H011        -2.5820     2.2600    -0.4240 h1         1 LSY       0.041617
     15 H012        -2.9070     1.2050    -1.8160 h1         1 LSY       0.041617
     16 H033        -3.3660     0.3410     2.0450 h1         1 LSY       0.041617
     17 H031        -4.6300     0.0190     0.8540 h1         1 LSY       0.041617
     18 H032        -3.5210    -1.2630     1.3210 h1         1 LSY       0.041617
     19 H112         4.3470     0.8230     0.5620 h1         1 LSY       0.041617
     20 H113         3.1190     0.8040     1.8330 h1         1 LSY       0.041617
     21 H111         4.1410    -0.6090     1.5800 h1         1 LSY       0.041617
     22 H121         2.4460    -2.1950    -0.8640 h1         1 LSY       0.041617
     23 H123         3.2750    -0.9240    -1.7870 h1         1 LSY       0.041617
     24 H122         4.0730    -1.7240    -0.4390 h1         1 LSY       0.041617
     25 H1          -0.8560     1.0260    -1.4480 hn         1 LSY       0.329500
     26 H071         0.8560    -1.0890    -1.4650 hn         1 LSY       0.329500
@<TRIPOS>BOND
     1     1     7 1   
     2     1    13 1   
     3     1    14 1   
     4     1    15 1   
     5     2     7 1   
     6     2    16 1   
     7     2    17 1   
     8     2    18 1   
     9     3     7 1   
    10     3     8 1   
    11     3    11 2   
    12     4     9 1   
    13     4    10 1   
    14     4    12 2   
    15     5    10 1   
    16     5    19 1   
    17     5    20 1   
    18     5    21 1   
    19     6    10 1   
    20     6    22 1   
    21     6    23 1   
    22     6    24 1   
    23     8     9 1   
    24     8    25 1   
    25     9    26 1   
@<TRIPOS>SUBSTRUCTURE
     1 LSY         1 TEMP              0 ****  ****    0 ROOT
