@<TRIPOS>MOLECULE
LSZ
   79    83     1     0     0
SMALL
bcc


@<TRIPOS>ATOM
      1 C10         16.1780    16.8980    -0.5340 cc         1 LSZ       0.154200
      2 N12         14.2820    15.9970    -1.6640 ns         1 LSZ      -0.466100
      3 C13         13.4350    15.0940    -2.3120 ca         1 LSZ       0.058600
      4 C15         12.9750    13.1960    -3.7090 ca         1 LSZ      -0.133600
      5 C20         13.7260     7.5470    -5.6360 ca         1 LSZ      -0.215600
      6 C21         14.0450     6.2300    -5.0370 c          1 LSZ       0.591700
      7 C22         14.0050     6.1000    -3.5380 c3         1 LSZ      -0.196100
      8 C24         13.7610     7.7020    -7.0210 ca         1 LSZ      -0.031000
      9 C26         13.1160    10.0160    -6.8320 ca         1 LSZ       0.193100
     10 C28         12.8140    11.4380    -8.7170 c3         1 LSZ       0.142400
     11 C03         13.1230    19.7910     3.1340 c6         1 LSZ       0.164300
     12 C04         14.5200    19.8090     2.5430 c6         1 LSZ       0.163800
     13 C06         15.7930    20.2820     0.5540 c3         1 LSZ       0.135500
     14 C07         16.2950    18.9050     0.3100 cc         1 LSZ       0.270000
     15 C08         17.4640    18.2870     0.6260 cd         1 LSZ      -0.284300
     16 C09         17.3920    16.9810     0.0730 cd         1 LSZ      -0.179300
     17 C11         15.5590    15.7810    -1.2510 c          1 LSZ       0.613600
     18 C14         13.8950    14.0420    -3.1000 ca         1 LSZ      -0.090000
     19 C16         13.5170    12.0920    -4.5580 c          1 LSZ       0.689700
     20 C18         13.1000     9.8770    -5.4330 ca         1 LSZ      -0.007400
     21 C19         13.4010     8.6590    -4.8570 ca         1 LSZ      -0.067000
     22 C25         13.4660     8.9150    -7.6160 ca         1 LSZ      -0.237000
     23 C29         12.4090    12.8700    -8.9650 c3         1 LSZ      -0.095100
     24 C31         11.6090    13.4050    -3.5660 ca         1 LSZ      -0.117000
     25 C32         11.1420    14.4720    -2.8010 ca         1 LSZ      -0.093500
     26 C33          9.7050    14.7120    -2.6530 cc         1 LSZ       0.366800
     27 C37          7.5100    14.6380    -2.7500 cd         1 LSZ      -0.142300
     28 C38          8.6300    13.9950    -3.2160 cc         1 LSZ      -0.296300
     29 C39         12.0650    15.3030    -2.1750 ca         1 LSZ      -0.138000
     30 C42         13.8880    21.6150     1.1210 c6         1 LSZ       0.163800
     31 C43         12.4920    21.5890     1.7130 c6         1 LSZ       0.164300
     32 N02         12.5280    21.1100     3.0790 n3         1 LSZ      -0.719600
     33 N05         14.4860    20.2940     1.1760 n3         1 LSZ      -0.717600
     34 N17         12.7490    10.9780    -4.6290 ns         1 LSZ      -0.484100
     35 N34          9.2560    15.7100    -1.9040 nd         1 LSZ      -0.523800
     36 N35          7.9350    15.6500    -1.9740 na         1 LSZ       0.118400
     37 O23         14.3300     5.2810    -5.7410 o          1 LSZ      -0.534100
     38 O30         14.5850    12.1920    -5.1320 o          1 LSZ      -0.570100
     39 O40         16.1820    14.7500    -1.4360 o          1 LSZ      -0.567100
     40 O41         15.5110    18.0670    -0.3920 os         1 LSZ      -0.310800
     41 H1          13.8390    16.8530    -1.3620 hn         1 LSZ       0.336500
     42 H2          14.2480     5.0820    -3.2400 hc         1 LSZ       0.060367
     43 H3          14.7200     6.7790    -3.0690 hc         1 LSZ       0.060367
     44 H4          13.0190     6.3540    -3.1460 hc         1 LSZ       0.060367
     45 H5          14.0190     6.8610    -7.6500 ha         1 LSZ       0.151000
     46 H6          12.1320    10.7500    -9.2270 h1         1 LSZ       0.037200
     47 H7          13.8230    11.2510    -9.0980 h1         1 LSZ       0.037200
     48 H8          11.2880    20.8100     4.7310 h1         1 LSZ       0.031033
     49 H9          10.8260    22.1540     3.6860 h1         1 LSZ       0.031033
     50 H10         10.4870    20.4900     3.1840 h1         1 LSZ       0.031033
     51 H11         12.5140    19.0420     2.5980 h1         1 LSZ       0.039450
     52 H12         13.1830    19.4680     4.1760 h1         1 LSZ       0.039450
     53 H13         14.9240    18.7940     2.5630 h1         1 LSZ       0.040950
     54 H14         15.1760    20.4330     3.1750 h1         1 LSZ       0.040950
     55 H15         16.5550    20.8140     1.1460 h1         1 LSZ       0.053700
     56 H16         15.7210    20.8100    -0.4020 h1         1 LSZ       0.053700
     57 H17         18.2770    18.7160     1.1880 ha         1 LSZ       0.164000
     58 H18         18.1360    16.2040     0.1250 ha         1 LSZ       0.178000
     59 H19         14.9480    13.8740    -3.2500 ha         1 LSZ       0.181000
     60 H20         13.3790     8.5930    -3.7770 ha         1 LSZ       0.137000
     61 H21         13.4950     8.9880    -8.6940 ha         1 LSZ       0.141000
     62 H22         12.4340    13.0690   -10.0360 hc         1 LSZ       0.049700
     63 H23         11.3970    13.0640    -8.6110 hc         1 LSZ       0.049700
     64 H24         13.0900    13.5660    -8.4760 hc         1 LSZ       0.049700
     65 H25         10.9040    12.7620    -4.0770 ha         1 LSZ       0.137000
     66 H26          7.7670    17.2640    -0.7000 h1         1 LSZ       0.058367
     67 H27          6.5360    17.2070    -1.9710 h1         1 LSZ       0.058367
     68 H28          6.4350    16.1030    -0.5880 h1         1 LSZ       0.058367
     69 H29          6.4610    14.4490    -2.9140 h4         1 LSZ       0.172000
     70 H30          8.6580    13.1380    -3.8670 ha         1 LSZ       0.164000
     71 H31         11.7110    16.1310    -1.5720 ha         1 LSZ       0.150000
     72 H32         14.4960    22.3630     1.6570 h1         1 LSZ       0.040950
     73 H33         13.8280    21.9350     0.0780 h1         1 LSZ       0.040950
     74 H34         12.0800    22.6010     1.6980 h1         1 LSZ       0.039450
     75 H35         11.8420    20.9620     1.0770 h1         1 LSZ       0.039450
     76 H38         11.9870    10.8620    -3.9790 hn         1 LSZ       0.323500
     77 C01         11.2200    21.1370     3.6920 c3         1 LSZ       0.154100
     78 C36          7.1150    16.6100    -1.2690 c3         1 LSZ       0.039600
     79 O27         12.7770    11.2080    -7.3110 os         1 LSZ      -0.304900
@<TRIPOS>BOND
     1     1    16 2   
     2     1    17 1   
     3     1    40 1   
     4     2     3 1   
     5     2    17 1   
     6     2    41 1   
     7     3    18 ar  
     8     3    29 ar  
     9     4    18 ar  
    10     4    19 1   
    11     4    24 ar  
    12     5     6 1   
    13     5     8 ar  
    14     5    21 ar  
    15     6     7 1   
    16     6    37 2   
    17     7    42 1   
    18     7    43 1   
    19     7    44 1   
    20     8    22 ar  
    21     8    45 1   
    22     9    20 ar  
    23     9    22 ar  
    24     9    79 1   
    25    10    23 1   
    26    10    46 1   
    27    10    47 1   
    28    10    79 1   
    29    11    12 1   
    30    11    32 1   
    31    11    51 1   
    32    11    52 1   
    33    12    33 1   
    34    12    53 1   
    35    12    54 1   
    36    13    14 1   
    37    13    33 1   
    38    13    55 1   
    39    13    56 1   
    40    14    15 2   
    41    14    40 1   
    42    15    16 1   
    43    15    57 1   
    44    16    58 1   
    45    17    39 2   
    46    18    59 1   
    47    19    34 1   
    48    19    38 2   
    49    20    21 ar  
    50    20    34 1   
    51    21    60 1   
    52    22    61 1   
    53    23    62 1   
    54    23    63 1   
    55    23    64 1   
    56    24    25 ar  
    57    24    65 1   
    58    25    26 1   
    59    25    29 ar  
    60    26    28 1   
    61    26    35 2   
    62    27    28 2   
    63    27    36 1   
    64    27    69 1   
    65    28    70 1   
    66    29    71 1   
    67    30    31 1   
    68    30    33 1   
    69    30    72 1   
    70    30    73 1   
    71    31    32 1   
    72    31    74 1   
    73    31    75 1   
    74    32    77 1   
    75    34    76 1   
    76    35    36 1   
    77    36    78 1   
    78    48    77 1   
    79    49    77 1   
    80    50    77 1   
    81    66    78 1   
    82    67    78 1   
    83    68    78 1   
@<TRIPOS>SUBSTRUCTURE
     1 LSZ         1 TEMP              0 ****  ****    0 ROOT
