@<TRIPOS>MOLECULE
LSZ
   79    83     1     0     0
SMALL
No Charge or Current Charge


@<TRIPOS>ATOM
      1 C10         15.9230    16.8960     0.0460 cc         1 LSZ       0.044500
      2 N12         14.4270    15.8840    -1.5160 ns         1 LSZ      -0.140000
      3 C13         13.7210    15.0450    -2.4240 ca         1 LSZ      -0.034000
      4 C15         13.4030    12.9640    -3.6900 ca         1 LSZ      -0.133600
      5 C20         14.2880     7.3890    -5.8740 ca         1 LSZ      -0.215600
      6 C21         15.4020     6.3970    -5.5910 c          1 LSZ       0.591700
      7 C22         16.5260     6.7690    -4.6210 c3         1 LSZ      -0.196100
      8 C24         13.2600     7.0360    -6.7740 ca         1 LSZ      -0.013000
      9 C26         12.1840     9.1980    -6.4420 ca         1 LSZ       0.193100
     10 C28         10.0900     9.8320    -7.5950 c3         1 LSZ       0.165600
     11 C03         13.2920    20.0600     4.4080 c6         1 LSZ       0.164300
     12 C04         14.5050    19.9800     3.4260 c6         1 LSZ       0.163800
     13 C06         15.2810    20.3350     1.0790 c3         1 LSZ       0.135500
     14 C07         15.8370    18.9430     0.8830 cc         1 LSZ       0.160300
     15 C08         16.9300    18.3260     1.4310 cd         1 LSZ      -0.201000
     16 C09         16.9870    17.0210     0.9000 cd         1 LSZ      -0.096000
     17 C11         15.5680    15.6900    -0.7470 c          1 LSZ       0.546600
     18 C14         14.1470    13.7480    -2.7800 ca         1 LSZ      -0.072000
     19 C16         13.8970    11.5700    -4.0480 c          1 LSZ       0.622700
     20 C18         13.2010     9.5700    -5.5390 ca         1 LSZ      -0.100000
     21 C19         14.2490     8.6630    -5.2600 ca         1 LSZ      -0.049000
     22 C25         12.2170     7.9310    -7.0560 ca         1 LSZ      -0.219000
     23 C29          9.1790    11.0690    -7.6120 c3         1 LSZ      -0.095100
     24 C31         12.2160    13.5070    -4.2440 ca         1 LSZ      -0.099000
     25 C32         11.7720    14.8040    -3.9040 ca         1 LSZ      -0.093500
     26 C33         10.5340    15.3690    -4.4840 cc         1 LSZ       0.301500
     27 C37          8.6610    15.5640    -5.6900 cd         1 LSZ      -0.175000
     28 C38          9.6840    14.7160    -5.4000 cc         1 LSZ      -0.213000
     29 C39         12.5420    15.5580    -2.9910 ca         1 LSZ      -0.120000
     30 C42         13.5300    21.7820     2.0800 c6         1 LSZ       0.163800
     31 C43         12.3170    21.8590     3.0620 c6         1 LSZ       0.164300
     32 N02         12.6780    21.4230     4.4460 n3         1 LSZ      -0.719600
     33 N05         14.1470    20.4200     2.0390 n3         1 LSZ      -0.717600
     34 N17         13.1070    10.8680    -4.9520 ns         1 LSZ      -0.158000
     35 N34         10.0970    16.5810    -4.1840 nd         1 LSZ      -0.523800
     36 N35          8.9350    16.7030    -4.9320 na         1 LSZ       0.139800
     37 O23         15.4140     5.2970    -6.1300 o          1 LSZ      -0.534100
     38 O30         14.9260    11.1150    -3.5610 o          1 LSZ      -0.570100
     39 O40         16.2150    14.6480    -0.7170 o          1 LSZ      -0.567100
     40 O41         15.2020    18.0750     0.0190 os         1 LSZ      -0.222000
     41 H1          14.0180    16.8040    -1.4080 hn         1 LSZ       0.170000
     42 H2          17.2650     5.9680    -4.5070 hc         1 LSZ       0.060367
     43 H3          16.9940     7.7010    -4.9560 hc         1 LSZ       0.060367
     44 H4          16.0890     7.0490    -3.6560 hc         1 LSZ       0.060367
     45 H5          13.2630     6.0620    -7.2620 ha         1 LSZ       0.133000
     46 H6           9.5160     8.9590    -7.2590 h1         1 LSZ       0.037200
     47 H7          10.4660     9.6400    -8.6090 h1         1 LSZ       0.037200
     48 H8          11.8600    21.2350     6.4040 h1         1 LSZ       0.031033
     49 H9          11.1530    22.5400     5.4280 h1         1 LSZ       0.031033
     50 H10         10.7270    20.8450     5.0880 h1         1 LSZ       0.031033
     51 H11         12.5420    19.3170     4.0970 h1         1 LSZ       0.039450
     52 H12         13.6340    19.7680     5.4120 h1         1 LSZ       0.039450
     53 H13         14.8730    18.9440     3.4190 h1         1 LSZ       0.040950
     54 H14         15.3170    20.6060     3.8230 h1         1 LSZ       0.040950
     55 H15         16.1010    20.9880     1.4070 h1         1 LSZ       0.053700
     56 H16         14.9600    20.7030     0.0950 h1         1 LSZ       0.053700
     57 H17         17.6190    18.7670     2.1450 ha         1 LSZ       0.146000
     58 H18         17.7260    16.2560     1.1220 ha         1 LSZ       0.160000
     59 H19         15.0580    13.3340    -2.3600 ha         1 LSZ       0.163000
     60 H20         15.0330     8.9440    -4.5670 ha         1 LSZ       0.119000
     61 H21         11.4460     7.6210    -7.7540 ha         1 LSZ       0.123000
     62 H22          8.3330    10.9080    -8.2900 hc         1 LSZ       0.049700
     63 H23          8.7830    11.2710    -6.6100 hc         1 LSZ       0.049700
     64 H24          9.7320    11.9510    -7.9560 hc         1 LSZ       0.049700
     65 H25         11.6310    12.9210    -4.9440 ha         1 LSZ       0.119000
     66 H26          7.8570    18.1460    -3.8410 h1         1 LSZ       0.058367
     67 H27          8.7160    18.7670    -5.2840 h1         1 LSZ       0.058367
     68 H28          7.2210    17.8040    -5.4780 h1         1 LSZ       0.058367
     69 H29          7.7990    15.4640    -6.3400 h4         1 LSZ       0.154000
     70 H30          9.8190    13.7200    -5.8030 ha         1 LSZ       0.146000
     71 H31         12.2220    16.5600    -2.7130 ha         1 LSZ       0.132000
     72 H32         14.2790    22.5260     2.3920 h1         1 LSZ       0.040950
     73 H33         13.1870    22.0750     1.0770 h1         1 LSZ       0.040950
     74 H34         11.9410    22.8920     3.0750 h1         1 LSZ       0.039450
     75 H35         11.5080    21.2270     2.6660 h1         1 LSZ       0.039450
     76 H38         12.2920    11.3780    -5.2630 hn         1 LSZ       0.157000
     77 C01         11.5440    21.5140     5.3900 c3         1 LSZ       0.154100
     78 C36          8.1320    17.9320    -4.8810 c3         1 LSZ       0.068900
     79 O27         11.1730    10.1090    -6.6930 os         1 LSZ      -0.328100
@<TRIPOS>BOND
     1     1    16 2   
     2     1    17 1   
     3     1    40 1   
     4     2     3 1   
     5     2    17 1   
     6     2    41 1   
     7     3    18 ar  
     8     3    29 ar  
     9     4    18 ar  
    10     4    19 1   
    11     4    24 ar  
    12     5     6 1   
    13     5     8 ar  
    14     5    21 ar  
    15     6     7 1   
    16     6    37 2   
    17     7    42 1   
    18     7    43 1   
    19     7    44 1   
    20     8    22 ar  
    21     8    45 1   
    22     9    20 ar  
    23     9    22 ar  
    24     9    79 1   
    25    10    23 1   
    26    10    46 1   
    27    10    47 1   
    28    10    79 1   
    29    11    12 1   
    30    11    32 1   
    31    11    51 1   
    32    11    52 1   
    33    12    33 1   
    34    12    53 1   
    35    12    54 1   
    36    13    14 1   
    37    13    33 1   
    38    13    55 1   
    39    13    56 1   
    40    14    15 2   
    41    14    40 1   
    42    15    16 1   
    43    15    57 1   
    44    16    58 1   
    45    17    39 2   
    46    18    59 1   
    47    19    34 1   
    48    19    38 2   
    49    20    21 ar  
    50    20    34 1   
    51    21    60 1   
    52    22    61 1   
    53    23    62 1   
    54    23    63 1   
    55    23    64 1   
    56    24    25 ar  
    57    24    65 1   
    58    25    26 1   
    59    25    29 ar  
    60    26    28 1   
    61    26    35 2   
    62    27    28 2   
    63    27    36 1   
    64    27    69 1   
    65    28    70 1   
    66    29    71 1   
    67    30    31 1   
    68    30    33 1   
    69    30    72 1   
    70    30    73 1   
    71    31    32 1   
    72    31    74 1   
    73    31    75 1   
    74    32    77 1   
    75    34    76 1   
    76    35    36 1   
    77    36    78 1   
    78    48    77 1   
    79    49    77 1   
    80    50    77 1   
    81    66    78 1   
    82    67    78 1   
    83    68    78 1   
@<TRIPOS>SUBSTRUCTURE
     1 LSZ         1 TEMP              0 ****  ****    0 ROOT
