@<TRIPOS>MOLECULE
LT0
   37    38     1     0     0
SMALL
bcc


@<TRIPOS>ATOM
      1 C10         -2.3240   -54.7290   -18.6060 c3         1 LT0       0.085500
      2 C13          0.7380   -53.0310   -19.1040 cc         1 LT0      -0.119100
      3 C15          0.0660   -50.9290   -18.8030 ca         1 LT0      -0.053200
      4 C17         -1.1460   -49.0100   -18.1110 ca         1 LT0      -0.114000
      5 C20         -0.8430   -51.7800   -18.1330 ca         1 LT0      -0.099800
      6 C12         -0.3900   -53.1260   -18.3380 cd         1 LT0      -0.122400
      7 C19         -1.9200   -51.2100   -17.4440 ca         1 LT0      -0.060000
      8 C11         -1.0310   -54.3790   -17.8430 c3         1 LT0      -0.006200
      9 N14          1.0140   -51.7210   -19.3810 na         1 LT0      -0.185400
     10 C02         -2.8890   -56.0170   -18.0080 c          1 LT0       0.655100
     11 N03         -3.6770   -55.8950   -16.9250 ns         1 LT0      -0.543900
     12 C04         -4.2120   -54.6980   -16.3050 c3         1 LT0      -0.045300
     13 C05         -5.5160   -54.3130   -16.9980 c3         1 LT0       0.131400
     14 O06         -6.0460   -53.1750   -16.3620 oh         1 LT0      -0.573800
     15 C07         -4.4640   -54.9930   -14.8020 c          1 LT0       0.940600
     16 O08         -4.0560   -54.1540   -13.9840 o          1 LT0      -0.819300
     17 O09         -5.0700   -56.0590   -14.5710 o          1 LT0      -0.819300
     18 C16         -0.0730   -49.5420   -18.8000 ca         1 LT0      -0.165000
     19 C18         -2.0620   -49.8360   -17.4380 ca         1 LT0      -0.168000
     20 N21         -2.0170   -54.9300   -20.0070 n8         1 LT0      -0.870800
     21 H1          -3.0400   -53.9120   -18.4470 h1         1 LT0       0.035700
     22 H3          -1.2840   -47.9370   -18.0890 ha         1 LT0       0.116000
     23 H4          -2.6340   -51.8330   -16.9190 ha         1 LT0       0.161000
     24 H5          -1.2540   -54.2880   -16.7770 hc         1 LT0       0.070200
     25 H6          -0.3350   -55.2150   -17.9490 hc         1 LT0       0.070200
     26 H7           1.7960   -51.3970   -19.9240 hn         1 LT0       0.288700
     27 H8          -4.0290   -56.7570   -16.5300 hn         1 LT0       0.336500
     28 H9          -3.4950   -53.8810   -16.3920 h1         1 LT0       0.050700
     29 H10         -6.1980   -55.1720   -16.9440 h1         1 LT0       0.003200
     30 H11         -5.3180   -54.1270   -18.0640 h1         1 LT0       0.003200
     31 H12         -6.8800   -52.9540   -16.7840 ho         1 LT0       0.376000
     32 H14          0.6330   -48.9050   -19.3170 ha         1 LT0       0.118000
     33 H15         -2.8910   -49.3850   -16.9070 ha         1 LT0       0.132000
     34 H16         -2.8710   -55.0920   -20.5270 hn         1 LT0       0.333300
     35 H17         -1.6290   -54.0690   -20.3740 hn         1 LT0       0.333300
     36 O01         -2.5880   -57.1150   -18.4590 o          1 LT0      -0.636100
     37 H2           1.3800   -53.8170   -19.4720 h4         1 LT0       0.162000
@<TRIPOS>BOND
     1     1     8 1   
     2     1    10 1   
     3     1    20 1   
     4     1    21 1   
     5     2     6 2   
     6     2     9 1   
     7     2    37 1   
     8     3     5 ar  
     9     3     9 1   
    10     3    18 ar  
    11     4    18 ar  
    12     4    19 ar  
    13     4    22 1   
    14     5     6 1   
    15     5     7 ar  
    16     6     8 1   
    17     7    19 ar  
    18     7    23 1   
    19     8    24 1   
    20     8    25 1   
    21     9    26 1   
    22    10    11 1   
    23    10    36 2   
    24    11    12 1   
    25    11    27 1   
    26    12    13 1   
    27    12    15 1   
    28    12    28 1   
    29    13    14 1   
    30    13    29 1   
    31    13    30 1   
    32    14    31 1   
    33    15    16 1   
    34    15    17 1   
    35    18    32 1   
    36    19    33 1   
    37    20    34 1   
    38    20    35 1   
@<TRIPOS>SUBSTRUCTURE
     1 LT0         1 TEMP              0 ****  ****    0 ROOT
