@<TRIPOS>MOLECULE
LT0
   37    38     1     0     0
SMALL
No Charge or Current Charge


@<TRIPOS>ATOM
      1 C10         -2.2000   -54.8490   -18.5270 c3         1 LT0       0.085500
      2 C13          0.8050   -53.0150   -19.2580 cc         1 LT0      -0.169100
      3 C15         -0.0380   -50.9280   -18.8490 ca         1 LT0      -0.053200
      4 C17         -1.3550   -49.0710   -18.0620 ca         1 LT0      -0.096000
      5 C20         -0.8370   -51.8010   -18.1660 ca         1 LT0      -0.099800
      6 C12         -0.3050   -53.1220   -18.4270 cd         1 LT0      -0.122400
      7 C19         -1.9270   -51.3650   -17.3990 ca         1 LT0      -0.042000
      8 C11         -0.8580   -54.4200   -17.8800 c3         1 LT0      -0.006200
      9 N14          0.9500   -51.6340   -19.5100 na         1 LT0      -0.235700
     10 C02         -2.7630   -56.1430   -17.8090 c          1 LT0       0.588100
     11 N03         -3.8020   -56.0120   -16.9080 ns         1 LT0      -0.476900
     12 C04         -4.2650   -54.7620   -16.2490 c3         1 LT0      -0.045300
     13 C05         -5.3860   -54.0620   -17.0540 c3         1 LT0       0.154600
     14 O06         -5.6650   -52.7710   -16.5060 oh         1 LT0      -0.636000
     15 C07         -4.7300   -55.0670   -14.7950 c          1 LT0       0.730000
     16 O08         -4.1270   -54.5330   -13.8730 o          1 LT0      -0.714000
     17 O09         -5.5610   -55.9500   -14.6260 o          1 LT0      -0.714000
     18 C16         -0.2650   -49.5460   -18.8230 ca         1 LT0      -0.147000
     19 C18         -2.1820   -49.9760   -17.3530 ca         1 LT0      -0.150000
     20 N21         -2.0550   -54.9450   -20.0230 n8         1 LT0      -0.981200
     21 H1          -2.9100   -54.0330   -18.3550 h1         1 LT0       0.035700
     22 H3          -1.5600   -48.0030   -18.0200 ha         1 LT0       0.098000
     23 H4          -2.5560   -52.0650   -16.8570 ha         1 LT0       0.143000
     24 H5          -1.0030   -54.3220   -16.7970 hc         1 LT0       0.070200
     25 H6          -0.1250   -55.2250   -18.0120 hc         1 LT0       0.070200
     26 H7           1.6720   -51.2140   -20.0880 hn         1 LT0       0.339000
     27 H8          -4.1600   -56.8870   -16.5410 hn         1 LT0       0.336500
     28 H9          -3.4100   -54.0800   -16.1720 h1         1 LT0       0.050700
     29 H10         -6.2900   -54.6850   -17.0400 h1         1 LT0       0.003200
     30 H11         -5.0760   -53.9580   -18.1010 h1         1 LT0       0.003200
     31 H12         -6.3810   -52.3790   -17.0510 ho         1 LT0       0.415000
     32 H14          0.3770   -48.8590   -19.3710 ha         1 LT0       0.100000
     33 H15         -3.0190   -49.6010   -16.7690 ha         1 LT0       0.114000
     34 H16         -2.9850   -55.0010   -20.4540 hn         1 LT0       0.388500
     35 H17         -1.6710   -54.0580   -20.3680 hn         1 LT0       0.388500
     36 O01         -2.3630   -57.2700   -18.0750 o          1 LT0      -0.636100
     37 H2           1.4680   -53.7710   -19.6700 h4         1 LT0       0.212000
@<TRIPOS>BOND
     1     1     8 1   
     2     1    10 1   
     3     1    20 1   
     4     1    21 1   
     5     2     6 2   
     6     2     9 1   
     7     2    37 1   
     8     3     5 ar  
     9     3     9 1   
    10     3    18 ar  
    11     4    18 ar  
    12     4    19 ar  
    13     4    22 1   
    14     5     6 1   
    15     5     7 ar  
    16     6     8 1   
    17     7    19 ar  
    18     7    23 1   
    19     8    24 1   
    20     8    25 1   
    21     9    26 1   
    22    10    11 1   
    23    10    36 2   
    24    11    12 1   
    25    11    27 1   
    26    12    13 1   
    27    12    15 1   
    28    12    28 1   
    29    13    14 1   
    30    13    29 1   
    31    13    30 1   
    32    14    31 1   
    33    15    16 1   
    34    15    17 1   
    35    18    32 1   
    36    19    33 1   
    37    20    34 1   
    38    20    35 1   
@<TRIPOS>SUBSTRUCTURE
     1 LT0         1 TEMP              0 ****  ****    0 ROOT
