@<TRIPOS>MOLECULE
LT1
   21    21     1     0     0
SMALL
No Charge or Current Charge


@<TRIPOS>ATOM
      1 C1          -2.6770    -0.0030    -0.7110 c3         1 LT1       0.130600
      2 C2          -1.2650     0.0010    -0.0930 c3         1 LT1      -0.086400
      3 C3          -0.1430     0.0030    -1.1520 c3         1 LT1      -0.031100
      4 C4           1.2410     0.0070    -0.5170 ca         1 LT1      -0.081300
      5 C5           1.8810     1.2260    -0.2160 ca         1 LT1      -0.106000
      6 C6           3.1570     1.2290     0.3760 ca         1 LT1      -0.108000
      7 C7           3.7990     0.0150     0.6700 ca         1 LT1      -0.109000
      8 C8           3.1650    -1.2030     0.3740 ca         1 LT1      -0.108000
      9 C9           1.8890    -1.2070    -0.2170 ca         1 LT1      -0.106000
     10 Cl1         -3.9550    -0.0060     0.5820 cl         1 LT1      -0.291000
     11 H1          -2.8300     0.8910    -1.3290 h1         1 LT1       0.061700
     12 H1A         -2.8250    -0.8980    -1.3280 h1         1 LT1       0.061700
     13 H2          -1.1580     0.8840     0.5490 hc         1 LT1       0.060700
     14 H2A         -1.1530    -0.8800     0.5500 hc         1 LT1       0.060700
     15 H3          -0.2570    -0.8740    -1.8010 hc         1 LT1       0.047200
     16 H3A         -0.2610     0.8800    -1.8010 hc         1 LT1       0.047200
     17 H5           1.3900     2.1700    -0.4380 ha         1 LT1       0.110000
     18 H6           3.6460     2.1730     0.6060 ha         1 LT1       0.112000
     19 H7           4.7860     0.0180     1.1280 ha         1 LT1       0.113000
     20 H8           3.6600    -2.1440     0.6030 ha         1 LT1       0.112000
     21 H9           1.4040    -2.1550    -0.4410 ha         1 LT1       0.110000
@<TRIPOS>BOND
     1     1     2 1   
     2     1    10 1   
     3     1    11 1   
     4     1    12 1   
     5     2     3 1   
     6     2    13 1   
     7     2    14 1   
     8     3     4 1   
     9     3    15 1   
    10     3    16 1   
    11     4     5 ar  
    12     4     9 ar  
    13     5     6 ar  
    14     5    17 1   
    15     6     7 ar  
    16     6    18 1   
    17     7     8 ar  
    18     7    19 1   
    19     8     9 ar  
    20     8    20 1   
    21     9    21 1   
@<TRIPOS>SUBSTRUCTURE
     1 LT1         1 TEMP              0 ****  ****    0 ROOT
