@<TRIPOS>MOLECULE
LT1
   21    21     1     0     0
SMALL
abcg2


@<TRIPOS>ATOM
      1 C1          -2.6110    -0.0020    -0.7030 c3         1 LT1       0.130600
      2 C2          -1.2370     0.0010    -0.0700 c3         1 LT1      -0.086400
      3 C3          -0.1460     0.0030    -1.1440 c3         1 LT1      -0.031100
      4 C4           1.2290     0.0070    -0.5370 ca         1 LT1      -0.081300
      5 C5           1.8690     1.2060    -0.2280 ca         1 LT1      -0.106000
      6 C6           3.1220     1.2130     0.3700 ca         1 LT1      -0.108000
      7 C7           3.7570     0.0150     0.6720 ca         1 LT1      -0.109000
      8 C8           3.1300    -1.1870     0.3690 ca         1 LT1      -0.108000
      9 C9           1.8770    -1.1880    -0.2290 ca         1 LT1      -0.106000
     10 CL1         -3.9010    -0.0060     0.5570 cl         1 LT1      -0.291000
     11 H1          -2.7740     0.8820    -1.3160 h1         1 LT1       0.061700
     12 H1A         -2.7690    -0.8870    -1.3170 h1         1 LT1       0.061700
     13 H2          -1.1280     0.8810     0.5690 hc         1 LT1       0.060700
     14 H2A         -1.1240    -0.8770     0.5700 hc         1 LT1       0.060700
     15 H3          -0.2660    -0.8750    -1.7850 hc         1 LT1       0.047200
     16 H3A         -0.2700     0.8780    -1.7870 hc         1 LT1       0.047200
     17 H5           1.3830     2.1470    -0.4620 ha         1 LT1       0.110000
     18 H6           3.6030     2.1550     0.5980 ha         1 LT1       0.112000
     19 H7           4.7340     0.0180     1.1380 ha         1 LT1       0.113000
     20 H8           3.6180    -2.1260     0.5940 ha         1 LT1       0.112000
     21 H9           1.3970    -2.1310    -0.4650 ha         1 LT1       0.110000
@<TRIPOS>BOND
     1     1     2 1   
     2     1    10 1   
     3     1    11 1   
     4     1    12 1   
     5     2     3 1   
     6     2    13 1   
     7     2    14 1   
     8     3     4 1   
     9     3    15 1   
    10     3    16 1   
    11     4     5 ar  
    12     4     9 ar  
    13     5     6 ar  
    14     5    17 1   
    15     6     7 ar  
    16     6    18 1   
    17     7     8 ar  
    18     7    19 1   
    19     8     9 ar  
    20     8    20 1   
    21     9    21 1   
@<TRIPOS>SUBSTRUCTURE
     1 LT1         1 TEMP              0 ****  ****    0 ROOT
