@<TRIPOS>MOLECULE
LT4
   23    23     1     0     0
SMALL
No Charge or Current Charge


@<TRIPOS>ATOM
      1 OAC         -2.9590    -1.4130    -0.6410 oh         1 LT4      -0.557100
      2 CAJ         -1.9580    -0.5540    -0.2670 ca         1 LT4       0.046100
      3 CAG         -0.6130    -0.9040    -0.4760 ca         1 LT4      -0.154000
      4 CAI         -2.2780     0.6830     0.3280 ca         1 LT4       0.124100
      5 OAB         -3.5860     1.0150     0.5260 oh         1 LT4      -0.534100
      6 CAE         -1.2570     1.5650     0.7090 ca         1 LT4      -0.122000
      7 CAF          0.0890     1.2150     0.5000 ca         1 LT4      -0.093000
      8 CAK          0.4230    -0.0260    -0.0900 ca         1 LT4      -0.114300
      9 CAL          1.8830    -0.4240    -0.3290 c3         1 LT4       0.216600
     10 OAD          2.4060     0.3350    -1.4330 oh         1 LT4      -0.645000
     11 CAH          2.7870    -0.2370     0.9320 c3         1 LT4       0.115800
     12 NAA          4.1820    -0.7150     0.7390 n8         1 LT4      -0.993200
     13 HOAC        -2.5560    -2.2180    -1.0360 ho         1 LT4       0.475000
     14 HAG         -0.3670    -1.8580    -0.9370 ha         1 LT4       0.114000
     15 HOAB        -4.1100     0.2550     0.1850 ho         1 LT4       0.482000
     16 HAE         -1.5070     2.5200     1.1640 ha         1 LT4       0.131000
     17 HAF          0.8670     1.9150     0.7970 ha         1 LT4       0.117000
     18 HAL          1.9060    -1.4950    -0.5770 h1         1 LT4       0.093700
     19 HOAD         2.1240     1.2620    -1.2890 ho         1 LT4       0.434000
     20 HAH          2.8260     0.8280     1.2000 h1         1 LT4       0.034200
     21 HAHA         2.3470    -0.7810     1.7790 h1         1 LT4       0.034200
     22 HNAA         4.5790    -0.2260    -0.0740 hn         1 LT4       0.397500
     23 HNAB         4.7630    -0.3940     1.5250 hn         1 LT4       0.397500
@<TRIPOS>BOND
     1     1     2 1   
     2     1    13 1   
     3     2     3 ar  
     4     2     4 ar  
     5     3     8 ar  
     6     3    14 1   
     7     4     5 1   
     8     4     6 ar  
     9     5    15 1   
    10     6     7 ar  
    11     6    16 1   
    12     7     8 ar  
    13     7    17 1   
    14     8     9 1   
    15     9    10 1   
    16     9    11 1   
    17     9    18 1   
    18    10    19 1   
    19    11    12 1   
    20    11    20 1   
    21    11    21 1   
    22    12    22 1   
    23    12    23 1   
@<TRIPOS>SUBSTRUCTURE
     1 LT4         1 TEMP              0 ****  ****    0 ROOT
