@<TRIPOS>MOLECULE
LT5
   24    24     1     0     0
SMALL
No Charge or Current Charge


@<TRIPOS>ATOM
      1 FAC         -3.6520     0.6070    -0.5880 f          1 LT5      -0.113667
      2 CAN         -2.6730    -0.3090    -0.4030 c3         1 LT5       0.356300
      3 FAD         -3.0860    -1.1330     0.5860 f          1 LT5      -0.113667
      4 FAE         -2.6190    -1.0480    -1.5350 f          1 LT5      -0.113667
      5 CAL         -1.3220     0.3330    -0.0650 ca         1 LT5      -0.195300
      6 CAI         -0.1190    -0.3540    -0.3410 ca         1 LT5      -0.055000
      7 CAH         -1.2590     1.6040     0.5450 ca         1 LT5      -0.058000
      8 CAF         -0.0170     2.1800     0.8560 ca         1 LT5      -0.116000
      9 CAG          1.1740     1.4930     0.5700 ca         1 LT5      -0.071000
     10 CAK          1.1320     0.2150    -0.0250 ca         1 LT5      -0.118300
     11 CAM          2.4150    -0.5570    -0.3430 c3         1 LT5       0.212600
     12 OAB          3.0490     0.0280    -1.4940 oh         1 LT5      -0.642000
     13 CAJ          3.4170    -0.6100     0.8550 c3         1 LT5       0.115800
     14 NAA          4.6160    -1.4480     0.5880 n8         1 LT5      -0.990200
     15 HAI         -0.1560    -1.3400    -0.8010 ha         1 LT5       0.130000
     16 HAH         -2.1700     2.1510     0.7820 ha         1 LT5       0.132000
     17 HAF          0.0230     3.1620     1.3210 ha         1 LT5       0.122000
     18 HAG          2.1240     1.9620     0.8150 ha         1 LT5       0.116000
     19 HAM          2.1390    -1.5980    -0.5670 h1         1 LT5       0.098700
     20 HOAB         3.0520     0.9970    -1.3470 ho         1 LT5       0.434000
     21 HAJ          3.7580     0.4070     1.0930 h1         1 LT5       0.035200
     22 HAJA         2.9030    -1.0090     1.7410 h1         1 LT5       0.035200
     23 HNAA         5.0770    -1.0900    -0.2580 hn         1 LT5       0.399000
     24 HNAB         5.3110    -1.2930     1.3290 hn         1 LT5       0.399000
@<TRIPOS>BOND
     1     1     2 1   
     2     2     3 1   
     3     2     4 1   
     4     2     5 1   
     5     5     6 ar  
     6     5     7 ar  
     7     6    10 ar  
     8     6    15 1   
     9     7     8 ar  
    10     7    16 1   
    11     8     9 ar  
    12     8    17 1   
    13     9    10 ar  
    14     9    18 1   
    15    10    11 1   
    16    11    12 1   
    17    11    13 1   
    18    11    19 1   
    19    12    20 1   
    20    13    14 1   
    21    13    21 1   
    22    13    22 1   
    23    14    23 1   
    24    14    24 1   
@<TRIPOS>SUBSTRUCTURE
     1 LT5         1 TEMP              0 ****  ****    0 ROOT
