@<TRIPOS>MOLECULE
LT5
   24    24     1     0     0
SMALL
bcc


@<TRIPOS>ATOM
      1 FAC         -3.5220     0.1170     0.3920 f          1 LT5      -0.234967
      2 CAN         -2.4170    -0.5470     0.0400 c3         1 LT5       0.720200
      3 FAD         -2.3080    -1.5950     0.8710 f          1 LT5      -0.234967
      4 FAE         -2.6400    -1.0560    -1.1810 f          1 LT5      -0.234967
      5 CAL         -1.1920     0.3110     0.0660 ca         1 LT5      -0.195300
      6 CAI          0.0320    -0.2760    -0.2390 ca         1 LT5      -0.073000
      7 CAH         -1.2620     1.6630     0.3720 ca         1 LT5      -0.076000
      8 CAF         -0.0980     2.4170     0.3660 ca         1 LT5      -0.134000
      9 CAG          1.1210     1.8320     0.0600 ca         1 LT5      -0.089000
     10 CAK          1.1990     0.4760    -0.2410 ca         1 LT5      -0.118300
     11 CAM          2.5190    -0.2090    -0.5280 c3         1 LT5       0.189400
     12 OAB          3.4700     0.6570    -1.1030 oh         1 LT5      -0.579800
     13 CAJ          3.0510    -0.8740     0.7390 c3         1 LT5       0.115800
     14 NAA          4.2310    -1.6690     0.4540 n8         1 LT5      -0.879800
     15 HAI          0.0870    -1.3310    -0.4850 ha         1 LT5       0.148000
     16 HAH         -2.2040     2.1380     0.6110 ha         1 LT5       0.150000
     17 HAF         -0.1450     3.4730     0.5990 ha         1 LT5       0.140000
     18 HAG          2.0080     2.4520     0.0570 ha         1 LT5       0.134000
     19 HAM          2.3460    -0.9930    -1.2720 h1         1 LT5       0.098700
     20 HOAB         3.8470     1.2170    -0.4160 ho         1 LT5       0.395000
     21 HAJ          3.2030    -0.0910     1.5000 h1         1 LT5       0.035200
     22 HAJA         2.2750    -1.5330     1.1350 h1         1 LT5       0.035200
     23 HNAA         5.0080    -1.0610     0.2290 hn         1 LT5       0.343800
     24 HNAB         4.5060    -2.1670     1.2910 hn         1 LT5       0.343800
@<TRIPOS>BOND
     1     1     2 1   
     2     2     3 1   
     3     2     4 1   
     4     2     5 1   
     5     5     6 ar  
     6     5     7 ar  
     7     6    10 ar  
     8     6    15 1   
     9     7     8 ar  
    10     7    16 1   
    11     8     9 ar  
    12     8    17 1   
    13     9    10 ar  
    14     9    18 1   
    15    10    11 1   
    16    11    12 1   
    17    11    13 1   
    18    11    19 1   
    19    12    20 1   
    20    13    14 1   
    21    13    21 1   
    22    13    22 1   
    23    14    23 1   
    24    14    24 1   
@<TRIPOS>SUBSTRUCTURE
     1 LT5         1 TEMP              0 ****  ****    0 ROOT
