@<TRIPOS>MOLECULE
LT6
   59    60     1     0     0
SMALL
abcg2


@<TRIPOS>ATOM
      1 C1           6.6120    -4.0330    -0.5230 c3         1 LT6      -0.088100
      2 N1           2.9520    -0.7010     0.3070 n          1 LT6      -0.386800
      3 O1          -3.9200    -0.6220    -3.7010 oh         1 LT6      -0.670000
      4 C2           5.1730    -3.6200    -0.7940 c3         1 LT6      -0.073400
      5 N2          -2.5930    -0.1490    -1.2290 ns         1 LT6      -0.495900
      6 O2          -1.1370    -1.1790     0.1730 o          1 LT6      -0.584100
      7 C3           4.7930    -2.3230    -0.0900 c3         1 LT6      -0.098400
      8 C4           3.3560    -1.9150    -0.3860 c3         1 LT6       0.101000
      9 O4           3.7090     0.6210    -1.3610 o          1 LT6      -0.597100
     10 C5           2.3180    -0.8830     1.5960 c3         1 LT6       0.091300
     11 C6          -4.7990     0.1950     3.2180 ca         1 LT6      -0.107000
     12 C7          -4.7200     1.1800     2.2420 ca         1 LT6      -0.108000
     13 C8          -4.7750     0.8340     0.8980 ca         1 LT6      -0.106000
     14 C9          -4.9080    -0.4950     0.5050 ca         1 LT6      -0.080300
     15 C10         -4.9860    -1.4740     1.4930 ca         1 LT6      -0.106000
     16 C11         -4.9340    -1.1350     2.8380 ca         1 LT6      -0.108000
     17 C12         -4.9110    -0.8740    -0.9480 c3         1 LT6      -0.048100
     18 C13         -3.5060    -1.2530    -1.4410 c3         1 LT6       0.115700
     19 C14         -3.4980    -1.6970    -2.8940 c3         1 LT6       0.147600
     20 C15         -1.5530    -0.1790    -0.3860 c          1 LT6       0.611100
     21 C16         -0.9390     1.1850    -0.1160 c3         1 LT6       0.074600
     22 C17          1.2320     1.9850     0.4130 ca         1 LT6       0.193100
     23 C18          0.7660     3.1890     0.9310 ca         1 LT6      -0.225000
     24 C19          1.6730     4.1000     1.4580 ca         1 LT6      -0.036000
     25 C20          3.0330     3.8420     1.4750 ca         1 LT6      -0.194000
     26 C21          3.4630     2.6450     0.9350 ca         1 LT6       0.244000
     27 C22          2.6030     1.7020     0.4110 ca         1 LT6      -0.221600
     28 C23          3.1390     0.4840    -0.2850 c          1 LT6       0.636700
     29 H1           6.7840    -4.1920     0.5430 hc         1 LT6       0.031700
     30 H1A          6.8680    -4.9580    -1.0410 hc         1 LT6       0.031700
     31 H1B          7.3110    -3.2640    -0.8570 hc         1 LT6       0.031700
     32 HO1         -3.8500    -0.8880    -4.6220 ho         1 LT6       0.449000
     33 H2           5.0210    -3.5050    -1.8720 hc         1 LT6       0.036700
     34 H2A          4.4950    -4.4190    -0.4760 hc         1 LT6       0.036700
     35 HN2         -2.8210     0.7250    -1.6790 hn         1 LT6       0.322500
     36 H3           4.9300    -2.4410     0.9890 hc         1 LT6       0.048700
     37 H3A          5.4680    -1.5230    -0.4060 hc         1 LT6       0.048700
     38 H4           2.6710    -2.7090    -0.0800 h1         1 LT6       0.055200
     39 H4A          3.2190    -1.7790    -1.4590 h1         1 LT6       0.055200
     40 H5           1.2870    -1.2190     1.4820 h1         1 LT6       0.044367
     41 H5A          2.8680    -1.6320     2.1660 h1         1 LT6       0.044367
     42 H5B          2.3270     0.0360     2.1760 h1         1 LT6       0.044367
     43 H7          -4.6180     2.2200     2.5260 ha         1 LT6       0.112000
     44 H8          -4.7200     1.6110     0.1440 ha         1 LT6       0.108500
     45 H10         -5.0920    -2.5150     1.2080 ha         1 LT6       0.108500
     46 H11         -5.0010    -1.9090     3.5920 ha         1 LT6       0.112000
     47 H12         -5.5700    -1.7290    -1.1140 hc         1 LT6       0.060200
     48 H12A        -5.3020    -0.0510    -1.5520 hc         1 LT6       0.060200
     49 H13         -3.1420    -2.0930    -0.8460 h1         1 LT6       0.087700
     50 H14         -4.1580    -2.5680    -2.9930 h1         1 LT6       0.033700
     51 H14A        -2.4840    -2.0240    -3.1540 h1         1 LT6       0.033700
     52 H16         -1.3110     1.5100     0.8630 h1         1 LT6       0.054200
     53 H16A        -1.2430     1.9350    -0.8530 h1         1 LT6       0.054200
     54 H18         -0.2860     3.4390     0.9260 ha         1 LT6       0.121000
     55 H19          1.3040     5.0330     1.8630 ha         1 LT6       0.117000
     56 H20          3.7400     4.5490     1.8870 ha         1 LT6       0.138000
     57 F1           4.7740     2.3650     0.9350 f          1 LT6      -0.163000
     58 O3           0.4580     1.0230    -0.1120 os         1 LT6      -0.313100
     59 H6          -4.7590     0.4600     4.2660 ha         1 LT6       0.114000
@<TRIPOS>BOND
     1     1     4 1   
     2     1    29 1   
     3     1    30 1   
     4     1    31 1   
     5     2     8 1   
     6     2    10 1   
     7     2    28 1   
     8     3    19 1   
     9     3    32 1   
    10     4     7 1   
    11     4    33 1   
    12     4    34 1   
    13     5    18 1   
    14     5    20 1   
    15     5    35 1   
    16     6    20 2   
    17     7     8 1   
    18     7    36 1   
    19     7    37 1   
    20     8    38 1   
    21     8    39 1   
    22     9    28 2   
    23    10    40 1   
    24    10    41 1   
    25    10    42 1   
    26    11    12 ar  
    27    11    16 ar  
    28    11    59 1   
    29    12    13 ar  
    30    12    43 1   
    31    13    14 ar  
    32    13    44 1   
    33    14    15 ar  
    34    14    17 1   
    35    15    16 ar  
    36    15    45 1   
    37    16    46 1   
    38    17    18 1   
    39    17    47 1   
    40    17    48 1   
    41    18    19 1   
    42    18    49 1   
    43    19    50 1   
    44    19    51 1   
    45    20    21 1   
    46    21    52 1   
    47    21    53 1   
    48    21    58 1   
    49    22    23 ar  
    50    22    27 ar  
    51    22    58 1   
    52    23    24 ar  
    53    23    54 1   
    54    24    25 ar  
    55    24    55 1   
    56    25    26 ar  
    57    25    56 1   
    58    26    27 ar  
    59    26    57 1   
    60    27    28 1   
@<TRIPOS>SUBSTRUCTURE
     1 LT6         1 TEMP              0 ****  ****    0 ROOT
