@<TRIPOS>MOLECULE
LT6
   59    60     1     0     0
SMALL
No Charge or Current Charge


@<TRIPOS>ATOM
      1 C1           4.4460    -4.5700     2.3040 c3         1 LT6      -0.088100
      2 N1           2.2840    -0.3110     0.5180 n          1 LT6      -0.386800
      3 O1          -5.7890     1.1120    -2.0850 oh         1 LT6      -0.670000
      4 C2           3.5220    -3.9320     1.2500 c3         1 LT6      -0.073400
      5 N2          -2.9830     0.6170    -1.6010 ns         1 LT6      -0.495900
      6 O2          -1.0560    -0.4800    -2.1270 o          1 LT6      -0.584100
      7 C3           3.3800    -2.4040     1.4160 c3         1 LT6      -0.098400
      8 C4           2.4510    -1.7730     0.3580 c3         1 LT6       0.101000
      9 O4           4.0020     0.2130    -0.9280 o          1 LT6      -0.597100
     10 C5           1.3690     0.1530     1.5870 c3         1 LT6       0.091300
     11 C6          -1.0060    -2.5370     1.9030 ca         1 LT6      -0.107000
     12 C7          -1.7230    -1.3910     2.2870 ca         1 LT6      -0.108000
     13 C8          -2.8030    -0.9410     1.5080 ca         1 LT6      -0.106000
     14 C9          -3.1760    -1.6360     0.3400 ca         1 LT6      -0.080300
     15 C10         -2.4530    -2.7840    -0.0400 ca         1 LT6      -0.106000
     16 C11         -1.3700    -3.2310     0.7370 ca         1 LT6      -0.108000
     17 C12         -4.3510    -1.1510    -0.5070 c3         1 LT6      -0.048100
     18 C13         -3.9210    -0.4890    -1.8420 c3         1 LT6       0.115700
     19 C14         -5.1290    -0.0130    -2.6950 c3         1 LT6       0.147600
     20 C15         -1.6110     0.5350    -1.7210 c          1 LT6       0.611100
     21 C16         -0.8490     1.8060    -1.2820 c3         1 LT6       0.074600
     22 C17          1.4370     2.4810    -0.6030 ca         1 LT6       0.193100
     23 C18          1.1040     3.8500    -0.5370 ca         1 LT6      -0.225000
     24 C19          2.0420     4.7850    -0.0680 ca         1 LT6      -0.036000
     25 C20          3.3160     4.3520     0.3280 ca         1 LT6      -0.194000
     26 C21          3.6470     2.9900     0.2650 ca         1 LT6       0.244000
     27 C22          2.7080     2.0470    -0.1830 ca         1 LT6      -0.221600
     28 C23          3.0750     0.5980    -0.2260 c          1 LT6       0.636700
     29 H1           4.0600    -4.3960     3.3160 hc         1 LT6       0.031700
     30 H1A          4.5170    -5.6530     2.1460 hc         1 LT6       0.031700
     31 H1B          5.4560    -4.1480     2.2420 hc         1 LT6       0.031700
     32 HO1         -6.5350     1.3630    -2.6740 ho         1 LT6       0.449000
     33 H2           3.9150    -4.1540     0.2500 hc         1 LT6       0.036700
     34 H2A          2.5310    -4.3990     1.3150 hc         1 LT6       0.036700
     35 HN2         -3.3700     1.4970    -1.2810 hn         1 LT6       0.322500
     36 H3           2.9930    -2.1880     2.4190 hc         1 LT6       0.048700
     37 H3A          4.3700    -1.9370     1.3460 hc         1 LT6       0.048700
     38 H4           1.4610    -2.2430     0.4250 h1         1 LT6       0.055200
     39 H4A          2.8390    -1.9930    -0.6450 h1         1 LT6       0.055200
     40 H5           0.3760     0.3570     1.1680 h1         1 LT6       0.044367
     41 H5A          1.2670    -0.6170     2.3620 h1         1 LT6       0.044367
     42 H5B          1.7590     1.0640     2.0590 h1         1 LT6       0.044367
     43 H7          -1.4420    -0.8520     3.1890 ha         1 LT6       0.112000
     44 H8          -3.3500    -0.0520     1.8140 ha         1 LT6       0.108500
     45 H10         -2.7280    -3.3290    -0.9400 ha         1 LT6       0.108500
     46 H11         -0.8150    -4.1170     0.4370 ha         1 LT6       0.112000
     47 H12         -5.0140    -1.9960    -0.7290 hc         1 LT6       0.060200
     48 H12A        -4.9570    -0.4390     0.0660 hc         1 LT6       0.060200
     49 H13         -3.4070    -1.2580    -2.4340 h1         1 LT6       0.087700
     50 H14         -5.8310    -0.8480    -2.8240 h1         1 LT6       0.033700
     51 H14A        -4.7640     0.2650    -3.6930 h1         1 LT6       0.033700
     52 H16         -1.2930     2.1520    -0.3400 h1         1 LT6       0.054200
     53 H16A        -1.0160     2.5750    -2.0460 h1         1 LT6       0.054200
     54 H18          0.1300     4.2080    -0.8600 ha         1 LT6       0.121000
     55 H19          1.7850     5.8420    -0.0210 ha         1 LT6       0.117000
     56 H20          4.0480     5.0690     0.6890 ha         1 LT6       0.138000
     57 F1           4.8710     2.5940     0.6780 f          1 LT6      -0.163000
     58 O3           0.5610     1.5440    -1.1070 os         1 LT6      -0.313100
     59 H6          -0.1700    -2.8850     2.5050 ha         1 LT6       0.114000
@<TRIPOS>BOND
     1     1     4 1   
     2     1    29 1   
     3     1    30 1   
     4     1    31 1   
     5     2     8 1   
     6     2    10 1   
     7     2    28 1   
     8     3    19 1   
     9     3    32 1   
    10     4     7 1   
    11     4    33 1   
    12     4    34 1   
    13     5    18 1   
    14     5    20 1   
    15     5    35 1   
    16     6    20 2   
    17     7     8 1   
    18     7    36 1   
    19     7    37 1   
    20     8    38 1   
    21     8    39 1   
    22     9    28 2   
    23    10    40 1   
    24    10    41 1   
    25    10    42 1   
    26    11    12 ar  
    27    11    16 ar  
    28    11    59 1   
    29    12    13 ar  
    30    12    43 1   
    31    13    14 ar  
    32    13    44 1   
    33    14    15 ar  
    34    14    17 1   
    35    15    16 ar  
    36    15    45 1   
    37    16    46 1   
    38    17    18 1   
    39    17    47 1   
    40    17    48 1   
    41    18    19 1   
    42    18    49 1   
    43    19    50 1   
    44    19    51 1   
    45    20    21 1   
    46    21    52 1   
    47    21    53 1   
    48    21    58 1   
    49    22    23 ar  
    50    22    27 ar  
    51    22    58 1   
    52    23    24 ar  
    53    23    54 1   
    54    24    25 ar  
    55    24    55 1   
    56    25    26 ar  
    57    25    56 1   
    58    26    27 ar  
    59    26    57 1   
    60    27    28 1   
@<TRIPOS>SUBSTRUCTURE
     1 LT6         1 TEMP              0 ****  ****    0 ROOT
