@<TRIPOS>MOLECULE
LT7
   34    35     1     0     0
SMALL
No Charge or Current Charge


@<TRIPOS>ATOM
      1 N1          -5.8180   -10.3910   -16.4010 nc         1 LT7      -0.381300
      2 C4          -3.9980   -11.9500   -15.8160 ca         1 LT7      -0.150500
      3 C5          -2.8730   -12.2190   -15.0030 ca         1 LT7      -0.064000
      4 C6          -2.1500   -13.4160   -15.1510 ca         1 LT7      -0.124500
      5 C7          -4.7590   -10.6880   -15.6600 cd         1 LT7       0.620500
      6 C8          -5.3430    -8.8030   -14.9400 cc         1 LT7       0.493300
      7 C10         -6.8020    -6.1890   -12.4560 c3         1 LT7       0.173500
      8 N           -4.4210    -9.7240   -14.7360 nd         1 LT7      -0.724000
      9 O           -6.2220    -9.1230   -15.9280 os         1 LT7      -0.084700
     10 C1          -2.5350   -14.3670   -16.1110 ca         1 LT7      -0.052300
     11 C11         -7.2520    -5.0040   -13.3370 c3         1 LT7      -0.109100
     12 C12         -7.8050    -6.4680   -11.3200 c3         1 LT7      -0.109100
     13 C2          -3.6500   -14.1070   -16.9260 ca         1 LT7      -0.124500
     14 C3          -4.3760   -12.9120   -16.7820 ca         1 LT7      -0.064000
     15 C9          -5.4990    -7.4710   -14.2140 c3         1 LT7       0.129500
     16 N2          -6.6620    -7.4150   -13.2650 n7         1 LT7      -0.861400
     17 H1          -2.5510   -11.5020   -14.2500 ha         1 LT7       0.132000
     18 H2          -1.2870   -13.6020   -14.5150 ha         1 LT7       0.115000
     19 H3          -5.8390    -5.9310   -11.9910 h1         1 LT7       0.059700
     20 H4          -0.9420   -15.5370   -17.0030 hc         1 LT7       0.044700
     21 H5          -1.2980   -15.9740   -15.3230 hc         1 LT7       0.044700
     22 H6          -2.3930   -16.4790   -16.6160 hc         1 LT7       0.044700
     23 H7          -7.4090    -4.1110   -12.7220 hc         1 LT7       0.040367
     24 H8          -6.4930    -4.7570   -14.0880 hc         1 LT7       0.040367
     25 H9          -8.1920    -5.2310   -13.8540 hc         1 LT7       0.040367
     26 H10         -7.9100    -5.5870   -10.6770 hc         1 LT7       0.040367
     27 H11         -8.7940    -6.7210   -11.7200 hc         1 LT7       0.040367
     28 H12         -7.4600    -7.3020   -10.6970 hc         1 LT7       0.040367
     29 H13         -3.9580   -14.8330   -17.6760 ha         1 LT7       0.115000
     30 H14         -5.2360   -12.7410   -17.4280 ha         1 LT7       0.132000
     31 H15         -4.5630    -7.2770   -13.6740 h1         1 LT7       0.065200
     32 H16         -5.5890    -6.6910   -14.9820 h1         1 LT7       0.065200
     33 H17         -7.5360    -7.5650   -13.7860 hn         1 LT7       0.422000
     34 C           -1.7500   -15.6600   -16.2710 c3         1 LT7      -0.050800
@<TRIPOS>BOND
     1     1     5 2   
     2     1     9 1   
     3     2     3 ar  
     4     2     5 1   
     5     2    14 ar  
     6     3     4 ar  
     7     3    17 1   
     8     4    10 ar  
     9     4    18 1   
    10     5     8 1   
    11     6     8 2   
    12     6     9 1   
    13     6    15 1   
    14     7    11 1   
    15     7    12 1   
    16     7    16 1   
    17     7    19 1   
    18    10    13 ar  
    19    10    34 1   
    20    11    23 1   
    21    11    24 1   
    22    11    25 1   
    23    12    26 1   
    24    12    27 1   
    25    12    28 1   
    26    13    14 ar  
    27    13    29 1   
    28    14    30 1   
    29    15    16 1   
    30    15    31 1   
    31    15    32 1   
    32    16    33 1   
    33    20    34 1   
    34    21    34 1   
    35    22    34 1   
@<TRIPOS>SUBSTRUCTURE
     1 LT7         1 TEMP              0 ****  ****    0 ROOT
