@<TRIPOS>MOLECULE
LT7
   34    35     1     0     0
SMALL
bcc


@<TRIPOS>ATOM
      1 N1          -6.1220   -10.7200   -15.8100 nc         1 LT7      -0.381300
      2 C4          -4.0660   -12.0110   -15.6850 ca         1 LT7      -0.150500
      3 C5          -2.7760   -12.0930   -15.1680 ca         1 LT7      -0.082000
      4 C6          -1.9950   -13.2120   -15.4130 ca         1 LT7      -0.142500
      5 C7          -4.8880   -10.8340   -15.4170 cd         1 LT7       0.620500
      6 C8          -5.4630    -8.9640   -14.7190 cc         1 LT7       0.537700
      7 C10         -6.8670    -6.3120   -12.5050 c3         1 LT7       0.173500
      8 N           -4.4380    -9.7460   -14.7220 nd         1 LT7      -0.724000
      9 O           -6.5000    -9.4870   -15.3550 os         1 LT7      -0.129100
     10 C1          -2.4730   -14.2710   -16.1800 ca         1 LT7      -0.052300
     11 C11         -6.6990    -4.9570   -13.1910 c3         1 LT7      -0.109100
     12 C12         -8.1620    -6.3690   -11.7070 c3         1 LT7      -0.109100
     13 C2          -3.7680   -14.1800   -16.6920 ca         1 LT7      -0.142500
     14 C3          -4.5560   -13.0690   -16.4520 ca         1 LT7      -0.082000
     15 C9          -5.5880    -7.5990   -14.1370 c3         1 LT7       0.129500
     16 N2          -6.8390    -7.4490   -13.4230 n7         1 LT7      -0.806200
     17 H1          -2.3820   -11.2850   -14.5670 ha         1 LT7       0.150000
     18 H2          -0.9960   -13.2610   -14.9980 ha         1 LT7       0.133000
     19 H3          -6.0310    -6.4510   -11.8110 h1         1 LT7       0.059700
     20 H4          -1.1400   -15.3720   -17.4480 hc         1 LT7       0.044700
     21 H5          -0.8230   -15.5790   -15.7310 hc         1 LT7       0.044700
     22 H6          -2.2020   -16.3850   -16.4850 hc         1 LT7       0.044700
     23 H7          -6.7240    -4.1440   -12.4630 hc         1 LT7       0.040367
     24 H8          -5.7520    -4.8860   -13.7270 hc         1 LT7       0.040367
     25 H9          -7.5040    -4.7860   -13.9110 hc         1 LT7       0.040367
     26 H10         -8.2030    -5.5640   -10.9730 hc         1 LT7       0.040367
     27 H11         -9.0310    -6.2630   -12.3620 hc         1 LT7       0.040367
     28 H12         -8.2530    -7.3180   -11.1770 hc         1 LT7       0.040367
     29 H13         -4.1660   -14.9920   -17.2890 ha         1 LT7       0.133000
     30 H14         -5.5570   -13.0270   -16.8630 ha         1 LT7       0.150000
     31 H15         -4.7580    -7.4760   -13.4400 h1         1 LT7       0.065200
     32 H16         -5.4270    -6.8700   -14.9440 h1         1 LT7       0.065200
     33 H17         -7.6020    -7.3500   -14.0840 hn         1 LT7       0.366800
     34 C           -1.6160   -15.4660   -16.4690 c3         1 LT7      -0.050800
@<TRIPOS>BOND
     1     1     5 2   
     2     1     9 1   
     3     2     3 ar  
     4     2     5 1   
     5     2    14 ar  
     6     3     4 ar  
     7     3    17 1   
     8     4    10 ar  
     9     4    18 1   
    10     5     8 1   
    11     6     8 2   
    12     6     9 1   
    13     6    15 1   
    14     7    11 1   
    15     7    12 1   
    16     7    16 1   
    17     7    19 1   
    18    10    13 ar  
    19    10    34 1   
    20    11    23 1   
    21    11    24 1   
    22    11    25 1   
    23    12    26 1   
    24    12    27 1   
    25    12    28 1   
    26    13    14 ar  
    27    13    29 1   
    28    14    30 1   
    29    15    16 1   
    30    15    31 1   
    31    15    32 1   
    32    16    33 1   
    33    20    34 1   
    34    21    34 1   
    35    22    34 1   
@<TRIPOS>SUBSTRUCTURE
     1 LT7         1 TEMP              0 ****  ****    0 ROOT
