@<TRIPOS>MOLECULE
LT8
   21    22     1     0     0
SMALL
bcc


@<TRIPOS>ATOM
      1 C13         -6.9260   200.3760     7.8570 cc         1 LT8       0.285200
      2 C04         -9.0450   203.3530    10.4450 ca         1 LT8      -0.122600
      3 C05         -9.9430   204.3970    10.6650 ca         1 LT8      -0.108000
      4 C06        -10.7910   204.8520     9.6670 ca         1 LT8      -0.152000
      5 C07        -10.7830   204.2390     8.4210 ca         1 LT8      -0.160000
      6 C08         -9.9370   203.1660     8.1930 ca         1 LT8      -0.134000
      7 C09         -9.0730   202.7350     9.1950 ca         1 LT8       0.012800
      8 C11         -8.1540   200.4880     9.6700 cd         1 LT8      -0.082300
      9 C12         -7.2890   199.6530     9.0070 cc         1 LT8      -0.349300
     10 N10         -8.2620   201.6070     8.9260 na         1 LT8       0.210300
     11 N14         -7.5220   201.5520     7.8170 nd         1 LT8      -0.530800
     12 O01         -8.4970   202.9580    12.7000 o          1 LT8      -0.807300
     13 O03         -6.8590   202.8650    11.1790 o          1 LT8      -0.807300
     14 H1          -6.2550   200.0820     7.0640 h4         1 LT8       0.012100
     15 H2          -9.9570   204.8790    11.6340 ha         1 LT8       0.142000
     16 H3         -11.4610   205.6800     9.8620 ha         1 LT8       0.108000
     17 H4         -11.4470   204.5770     7.6360 ha         1 LT8       0.108000
     18 H5          -9.9480   202.6540     7.2400 ha         1 LT8       0.128000
     19 H6          -8.7040   200.3610    10.5880 h4         1 LT8       0.181000
     20 H7          -6.9690   198.6690     9.3040 ha         1 LT8       0.143000
     21 C02         -8.0380   203.0120    11.5460 c          1 LT8       0.922200
@<TRIPOS>BOND
     1     1     9 1   
     2     1    11 2   
     3     1    14 1   
     4     2     3 ar  
     5     2     7 ar  
     6     2    21 1   
     7     3     4 ar  
     8     3    15 1   
     9     4     5 ar  
    10     4    16 1   
    11     5     6 ar  
    12     5    17 1   
    13     6     7 ar  
    14     6    18 1   
    15     7    10 1   
    16     8     9 2   
    17     8    10 1   
    18     8    19 1   
    19     9    20 1   
    20    10    11 1   
    21    12    21 1   
    22    13    21 1   
@<TRIPOS>SUBSTRUCTURE
     1 LT8         1 TEMP              0 ****  ****    0 ROOT
