@<TRIPOS>MOLECULE
LT8
   21    22     1     0     0
SMALL
No Charge or Current Charge


@<TRIPOS>ATOM
      1 C13         -6.7940   200.3810     7.9660 cc         1 LT8       0.219900
      2 C04         -8.9550   203.4230    10.4250 ca         1 LT8      -0.122600
      3 C05         -9.8890   204.4520    10.6790 ca         1 LT8      -0.090000
      4 C06        -10.8380   204.8140     9.7100 ca         1 LT8      -0.134000
      5 C07        -10.8680   204.1500     8.4750 ca         1 LT8      -0.142000
      6 C08         -9.9520   203.1200     8.2130 ca         1 LT8      -0.116000
      7 C09         -8.9940   202.7450     9.1780 ca         1 LT8       0.012800
      8 C11         -8.3460   200.4910     9.5670 cd         1 LT8      -0.115000
      9 C12         -7.4550   199.6480     8.9720 cc         1 LT8      -0.266000
     10 N10         -8.1230   201.6900     8.8890 na         1 LT8       0.261000
     11 N14         -7.1950   201.6320     7.8600 nd         1 LT8      -0.530800
     12 O01         -8.3560   202.8410    12.6150 o          1 LT8      -0.702000
     13 O03         -6.7560   203.0940    11.1950 o          1 LT8      -0.702000
     14 H1          -6.0320   200.0200     7.2890 h4         1 LT8       0.012100
     15 H2          -9.8710   204.9760    11.6330 ha         1 LT8       0.124000
     16 H3         -11.5490   205.6110     9.9170 ha         1 LT8       0.090000
     17 H4         -11.6040   204.4300     7.7240 ha         1 LT8       0.090000
     18 H5          -9.9880   202.6020     7.2560 ha         1 LT8       0.110000
     19 H6          -9.0700   200.3600    10.3630 h4         1 LT8       0.163000
     20 H7          -7.2820   198.6010     9.2020 ha         1 LT8       0.125000
     21 C02         -7.9430   203.0720    11.4880 c          1 LT8       0.711600
@<TRIPOS>BOND
     1     1     9 1   
     2     1    11 2   
     3     1    14 1   
     4     2     3 ar  
     5     2     7 ar  
     6     2    21 1   
     7     3     4 ar  
     8     3    15 1   
     9     4     5 ar  
    10     4    16 1   
    11     5     6 ar  
    12     5    17 1   
    13     6     7 ar  
    14     6    18 1   
    15     7    10 1   
    16     8     9 2   
    17     8    10 1   
    18     8    19 1   
    19     9    20 1   
    20    10    11 1   
    21    12    21 1   
    22    13    21 1   
@<TRIPOS>SUBSTRUCTURE
     1 LT8         1 TEMP              0 ****  ****    0 ROOT
