@<TRIPOS>MOLECULE
LT9
   37    39     1     0     0
SMALL
abcg2


@<TRIPOS>ATOM
      1 N1           7.7050    -0.2720    21.0210 ns         1 LT9      -0.150000
      2 C4           7.6640     1.2060    19.0740 ca         1 LT9       0.344900
      3 C5           7.0090     0.3580    19.9650 ca         1 LT9      -0.094000
      4 C6           8.6070     0.3240    21.8410 c          1 LT9       0.614100
      5 C7           9.1750    -0.5270    22.9890 cy         1 LT9      -0.087700
      6 C8           8.5990     0.0280    24.3430 cy         1 LT9      -0.192900
      7 C10          8.4850    -1.8990    23.3010 cy         1 LT9      -0.192900
      8 C13         12.8760     0.3450    23.2430 ca         1 LT9      -0.099000
      9 C15         12.6310    -1.6200    21.9120 ca         1 LT9       0.124000
     10 N            7.0470     1.8190    18.0640 nb         1 LT9      -0.649000
     11 C1           5.6410     0.1100    19.8020 ca         1 LT9      -0.069300
     12 C11         10.6780    -0.5720    22.8410 ca         1 LT9      -0.065300
     13 C2           5.0140     0.7480    18.7360 ca         1 LT9      -0.149000
     14 C16         11.2550    -1.5860    22.0770 ca         1 LT9      -0.097000
     15 C9           7.7000    -1.1960    24.3930 c          1 LT9       0.569100
     16 C12         11.4970     0.3950    23.4190 ca         1 LT9      -0.079000
     17 C14         13.4580    -0.6640    22.4860 ca         1 LT9      -0.093000
     18 C            4.8890    -0.7880    20.7380 c3         1 LT9      -0.052800
     19 O            8.9670     1.4860    21.7140 o          1 LT9      -0.571100
     20 C3           5.7400     1.5900    17.9070 ca         1 LT9       0.324900
     21 CL          13.3420    -2.9050    20.9550 cl         1 LT9      -0.209000
     22 H1           7.4190    -1.2110    21.2410 hn         1 LT9       0.155000
     23 H2           8.7230     1.3900    19.1900 h4         1 LT9       0.041100
     24 H3           9.3400     0.0050    25.1440 hc         1 LT9       0.089450
     25 H4           8.1100     1.0000    24.3270 hc         1 LT9       0.089450
     26 H5           7.9460    -2.4660    22.5450 hc         1 LT9       0.089450
     27 H6           9.2100    -2.5730    23.7650 hc         1 LT9       0.089450
     28 H7          13.5050     1.1000    23.6970 ha         1 LT9       0.124000
     29 H8           3.9560     0.5980    18.5630 ha         1 LT9       0.123000
     30 H9          10.6380    -2.3440    21.6130 ha         1 LT9       0.126000
     31 H10         11.0610     1.1900    24.0090 ha         1 LT9       0.127000
     32 H11         14.5290    -0.7120    22.3480 ha         1 LT9       0.133000
     33 H12          5.2550    -1.8180    20.6790 hc         1 LT9       0.049033
     34 H13          5.0140    -0.4620    21.7730 hc         1 LT9       0.049033
     35 H14          3.8280    -0.7940    20.4960 hc         1 LT9       0.049033
     36 H15          5.2540     2.0950    17.0800 h4         1 LT9       0.023100
     37 O1           6.6960    -1.4630    24.9980 o          1 LT9      -0.479100
@<TRIPOS>BOND
     1     1     3 1   
     2     1     4 1   
     3     1    22 1   
     4     2     3 ar  
     5     2    10 ar  
     6     2    23 1   
     7     3    11 ar  
     8     4     5 1   
     9     4    19 2   
    10     5     6 1   
    11     5     7 1   
    12     5    12 1   
    13     6    15 1   
    14     6    24 1   
    15     6    25 1   
    16     7    15 1   
    17     7    26 1   
    18     7    27 1   
    19     8    16 ar  
    20     8    17 ar  
    21     8    28 1   
    22     9    14 ar  
    23     9    17 ar  
    24     9    21 1   
    25    10    20 ar  
    26    11    13 ar  
    27    11    18 1   
    28    12    14 ar  
    29    12    16 ar  
    30    13    20 ar  
    31    13    29 1   
    32    14    30 1   
    33    15    37 2   
    34    16    31 1   
    35    17    32 1   
    36    18    33 1   
    37    18    34 1   
    38    18    35 1   
    39    20    36 1   
@<TRIPOS>SUBSTRUCTURE
     1 LT9         1 TEMP              0 ****  ****    0 ROOT
