@<TRIPOS>MOLECULE
LT9
   37    39     1     0     0
SMALL
No Charge or Current Charge


@<TRIPOS>ATOM
      1 N1           7.7900     0.3130    21.5570 ns         1 LT9      -0.150000
      2 C4           5.9410     1.5870    20.4370 ca         1 LT9       0.344900
      3 C5           7.0270     0.6740    20.4060 ca         1 LT9      -0.094000
      4 C6           7.6860     0.6250    22.9080 c          1 LT9       0.614100
      5 C7           8.8920    -0.1170    23.6940 cy         1 LT9      -0.087700
      6 C8           9.2990     1.0840    24.6340 cy         1 LT9      -0.192900
      7 C10          8.0160    -0.7580    24.8410 cy         1 LT9      -0.192900
      8 C13         11.9520    -1.0040    21.5450 ca         1 LT9      -0.099000
      9 C15         10.5560    -2.9830    21.7540 ca         1 LT9       0.124000
     10 N            5.2230     1.9270    19.3390 nb         1 LT9      -0.649000
     11 C1           7.3790     0.0960    19.1650 ca         1 LT9      -0.069300
     12 C11          9.8960    -0.9120    22.8590 ca         1 LT9      -0.065300
     13 C2           6.6280     0.4550    18.0310 ca         1 LT9      -0.149000
     14 C16          9.6540    -2.2660    22.5570 ca         1 LT9      -0.097000
     15 C9           8.2530     0.5480    25.6620 c          1 LT9       0.569100
     16 C12         11.0490    -0.2840    22.3470 ca         1 LT9      -0.079000
     17 C14         11.7050    -2.3560    21.2480 ca         1 LT9      -0.093000
     18 C            8.5350    -0.8930    19.0390 c3         1 LT9      -0.052800
     19 O            6.7750     1.3480    23.3000 o          1 LT9      -0.571100
     20 C3           5.5670     1.3650    18.1610 ca         1 LT9       0.324900
     21 Cl          10.2380    -4.6700    21.3730 cl         1 LT9      -0.209000
     22 H1           8.5690    -0.2970    21.3450 hn         1 LT9       0.155000
     23 H2           5.6220     2.0750    21.3540 h4         1 LT9       0.041100
     24 H3          10.3040     1.0300    25.0620 hc         1 LT9       0.089450
     25 H4           9.0930     2.1100    24.3080 hc         1 LT9       0.089450
     26 H5           6.9550    -0.9580    24.6530 hc         1 LT9       0.089450
     27 H6           8.4650    -1.6110    25.3590 hc         1 LT9       0.089450
     28 H7          12.8400    -0.5140    21.1520 ha         1 LT9       0.124000
     29 H8           6.8560     0.0370    17.0550 ha         1 LT9       0.123000
     30 H9           8.7630    -2.7630    22.9330 ha         1 LT9       0.126000
     31 H10         11.2450     0.7640    22.5630 ha         1 LT9       0.127000
     32 H11         12.4000    -2.9140    20.6260 ha         1 LT9       0.133000
     33 H12          9.4810    -0.4420    19.3640 hc         1 LT9       0.049033
     34 H13          8.3600    -1.7870    19.6500 hc         1 LT9       0.049033
     35 H14          8.6720    -1.2280    18.0030 hc         1 LT9       0.049033
     36 H15          4.9750     1.6530    17.2930 h4         1 LT9       0.023100
     37 O1           7.8000     0.9820    26.7120 o          1 LT9      -0.479100
@<TRIPOS>BOND
     1     1     3 1   
     2     1     4 1   
     3     1    22 1   
     4     2     3 ar  
     5     2    10 ar  
     6     2    23 1   
     7     3    11 ar  
     8     4     5 1   
     9     4    19 2   
    10     5     6 1   
    11     5     7 1   
    12     5    12 1   
    13     6    15 1   
    14     6    24 1   
    15     6    25 1   
    16     7    15 1   
    17     7    26 1   
    18     7    27 1   
    19     8    16 ar  
    20     8    17 ar  
    21     8    28 1   
    22     9    14 ar  
    23     9    17 ar  
    24     9    21 1   
    25    10    20 ar  
    26    11    13 ar  
    27    11    18 1   
    28    12    14 ar  
    29    12    16 ar  
    30    13    20 ar  
    31    13    29 1   
    32    14    30 1   
    33    15    37 2   
    34    16    31 1   
    35    17    32 1   
    36    18    33 1   
    37    18    34 1   
    38    18    35 1   
    39    20    36 1   
@<TRIPOS>SUBSTRUCTURE
     1 LT9         1 TEMP              0 ****  ****    0 ROOT
