@<TRIPOS>MOLECULE
LTA
   37    36     1     0     0
SMALL
No Charge or Current Charge


@<TRIPOS>ATOM
      1 N           21.8480    10.9570    20.4490 n8         1 LTA      -0.877800
      2 CA          23.3290    11.0030    20.3700 c3         1 LTA       0.172500
      3 CB          23.8470    10.0480    19.2590 c3         1 LTA      -0.072400
      4 CG          23.4930     8.5460    19.4360 c3         1 LTA      -0.079400
      5 CD          24.1080     7.8850    20.6930 c3         1 LTA      -0.082400
      6 CE          23.8170     6.3730    20.7740 c3         1 LTA       0.148800
      7 NZ          24.4180     5.7710    21.9760 n8         1 LTA      -0.884800
      8 C           23.8900    12.4680    20.2170 c3         1 LTA       0.167100
      9 O           23.4980    13.0440    18.9600 oh         1 LTA      -0.572800
     10 C2          23.4670    13.4400    21.3440 c3         1 LTA      -0.181400
     11 C1          23.8490    12.8980    22.7160 c          1 LTA       0.642100
     12 O1          24.9760    12.9800    23.1860 o          1 LTA      -0.542000
     13 O2          22.7890    12.2940    23.3390 os         1 LTA      -0.428900
     14 C9          23.0070    11.7130    24.6340 c3         1 LTA       0.143400
     15 C10         21.6780    11.0900    25.0880 c3         1 LTA      -0.097100
     16 H           21.5510    11.4330    21.3060 hn         1 LTA       0.335800
     17 H2          21.5550     9.9860    20.5810 hn         1 LTA       0.335800
     18 HA          23.7070    10.6160    21.3250 h1         1 LTA       0.032700
     19 HB2         23.4550    10.3820    18.2900 hc         1 LTA       0.054700
     20 HB3         24.9380    10.1410    19.1950 hc         1 LTA       0.054700
     21 HG2         22.4040     8.4190    19.4530 hc         1 LTA       0.039700
     22 HG3         23.8490     8.0070    18.5490 hc         1 LTA       0.039700
     23 HD2         25.1940     8.0430    20.6880 hc         1 LTA       0.045700
     24 HD3         23.7150     8.3700    21.5940 hc         1 LTA       0.045700
     25 HE2         22.7310     6.2040    20.8030 h1         1 LTA       0.025700
     26 HE3         24.2250     5.8680    19.8880 h1         1 LTA       0.025700
     27 HZ1         24.1570     4.7800    22.0210 hn         1 LTA       0.335800
     28 HZ2         23.9870     6.1850    22.8090 hn         1 LTA       0.335800
     29 HC          24.9860    12.3930    20.2480 h1         1 LTA       0.043700
     30 HO          23.9590    13.9050    18.8780 ho         1 LTA       0.395000
     31 H21         23.9740    14.3990    21.1950 hc         1 LTA       0.080700
     32 H22         22.3800    13.5740    21.2970 hc         1 LTA       0.080700
     33 H91         23.7800    10.9330    24.5890 h1         1 LTA       0.048200
     34 H92         23.3220    12.4760    25.3590 h1         1 LTA       0.048200
     35 H101        21.7920    10.6310    26.0770 hc         1 LTA       0.047033
     36 H102        20.8950    11.8550    25.1520 hc         1 LTA       0.047033
     37 H103        21.3550    10.3140    24.3840 hc         1 LTA       0.047033
@<TRIPOS>BOND
     1     1     2 1   
     2     1    16 1   
     3     1    17 1   
     4     2     3 1   
     5     2     8 1   
     6     2    18 1   
     7     3     4 1   
     8     3    19 1   
     9     3    20 1   
    10     4     5 1   
    11     4    21 1   
    12     4    22 1   
    13     5     6 1   
    14     5    23 1   
    15     5    24 1   
    16     6     7 1   
    17     6    25 1   
    18     6    26 1   
    19     7    27 1   
    20     7    28 1   
    21     8     9 1   
    22     8    10 1   
    23     8    29 1   
    24     9    30 1   
    25    10    11 1   
    26    10    31 1   
    27    10    32 1   
    28    11    12 2   
    29    11    13 1   
    30    13    14 1   
    31    14    15 1   
    32    14    33 1   
    33    14    34 1   
    34    15    35 1   
    35    15    36 1   
    36    15    37 1   
@<TRIPOS>SUBSTRUCTURE
     1 LTA         1 TEMP              0 ****  ****    0 ROOT
