@<TRIPOS>MOLECULE
LTA
   37    36     1     0     0
SMALL
bcc


@<TRIPOS>ATOM
      1 N           21.8850    10.4040    20.1130 n8         1 LTA      -0.877800
      2 CA          23.3140    10.6100    20.3160 c3         1 LTA       0.172500
      3 CB          24.1170     9.9640    19.1870 c3         1 LTA      -0.072400
      4 CG          23.9570     8.4500    19.0520 c3         1 LTA      -0.079400
      5 CD          24.2610     7.6600    20.3200 c3         1 LTA      -0.082400
      6 CE          24.2390     6.1580    20.0830 c3         1 LTA       0.148800
      7 NZ          24.5090     5.4290    21.3130 n8         1 LTA      -0.884800
      8 C           23.6430    12.1040    20.4160 c3         1 LTA       0.167100
      9 O           23.2960    12.7330    19.2000 oh         1 LTA      -0.572800
     10 C2          22.9320    12.8100    21.5730 c3         1 LTA      -0.181400
     11 C1          23.3720    12.3730    22.9450 c          1 LTA       0.642100
     12 O1          24.4070    11.8050    23.1940 o          1 LTA      -0.542000
     13 O2          22.4940    12.7300    23.8730 os         1 LTA      -0.428900
     14 C9          22.8090    12.4480    25.2450 c3         1 LTA       0.143400
     15 C10         21.6800    12.9760    26.0970 c3         1 LTA      -0.097100
     16 H           21.3810    10.5920    20.9700 hn         1 LTA       0.335800
     17 H2          21.7090     9.4270    19.9190 hn         1 LTA       0.335800
     18 HA          23.6650    10.1650    21.2580 h1         1 LTA       0.032700
     19 HB2         23.8520    10.4320    18.2360 hc         1 LTA       0.054700
     20 HB3         25.1750    10.1880    19.3590 hc         1 LTA       0.054700
     21 HG2         22.9510     8.2010    18.7000 hc         1 LTA       0.039700
     22 HG3         24.6280     8.1150    18.2550 hc         1 LTA       0.039700
     23 HD2         25.2410     7.9480    20.7150 hc         1 LTA       0.045700
     24 HD3         23.5300     7.9050    21.0980 hc         1 LTA       0.045700
     25 HE2         23.2810     5.8880    19.6150 h1         1 LTA       0.025700
     26 HE3         25.0150     5.9020    19.3550 h1         1 LTA       0.025700
     27 HZ1         24.5140     4.4350    21.1230 hn         1 LTA       0.335800
     28 HZ2         23.7440     5.5770    21.9610 hn         1 LTA       0.335800
     29 HC          24.7250    12.1740    20.5880 h1         1 LTA       0.043700
     30 HO          23.7310    13.5900    19.1710 ho         1 LTA       0.395000
     31 H21         23.1470    13.8840    21.5120 hc         1 LTA       0.080700
     32 H22         21.8460    12.7280    21.4820 hc         1 LTA       0.080700
     33 H91         22.9300    11.3710    25.3810 h1         1 LTA       0.048200
     34 H92         23.7540    12.9260    25.5120 h1         1 LTA       0.048200
     35 H101        21.8960    12.7700    27.1450 hc         1 LTA       0.047033
     36 H102        21.5630    14.0530    25.9860 hc         1 LTA       0.047033
     37 H103        20.7330    12.4950    25.8520 hc         1 LTA       0.047033
@<TRIPOS>BOND
     1     1     2 1   
     2     1    16 1   
     3     1    17 1   
     4     2     3 1   
     5     2     8 1   
     6     2    18 1   
     7     3     4 1   
     8     3    19 1   
     9     3    20 1   
    10     4     5 1   
    11     4    21 1   
    12     4    22 1   
    13     5     6 1   
    14     5    23 1   
    15     5    24 1   
    16     6     7 1   
    17     6    25 1   
    18     6    26 1   
    19     7    27 1   
    20     7    28 1   
    21     8     9 1   
    22     8    10 1   
    23     8    29 1   
    24     9    30 1   
    25    10    11 1   
    26    10    31 1   
    27    10    32 1   
    28    11    12 2   
    29    11    13 1   
    30    13    14 1   
    31    14    15 1   
    32    14    33 1   
    33    14    34 1   
    34    15    35 1   
    35    15    36 1   
    36    15    37 1   
@<TRIPOS>SUBSTRUCTURE
     1 LTA         1 TEMP              0 ****  ****    0 ROOT
