@<TRIPOS>MOLECULE
LTB
   55    54     1     0     0
SMALL
No Charge or Current Charge


@<TRIPOS>ATOM
      1 O1           7.5620    -2.5480    -2.1710 o          1 LTB      -0.740500
      2 C1           6.3580    -2.3380    -2.1980 c          1 LTB       0.717000
      3 O2           5.6870    -2.3850    -3.2180 o          1 LTB      -0.740500
      4 C2           5.6610    -1.9300    -0.8870 c3         1 LTB      -0.206400
      5 C3           5.6980    -0.3910    -0.7180 c3         1 LTB      -0.051400
      6 C4           5.0160     0.0930     0.5850 c3         1 LTB      -0.108400
      7 C5           4.9970     1.6310     0.7540 c3         1 LTB       0.189500
      8 O3           6.3340     2.1130     0.9010 oh         1 LTB      -0.650000
      9 C6           4.1870     2.0550     1.9660 c2         1 LTB      -0.201200
     10 C7           2.8430     2.1870     2.0500 ce         1 LTB      -0.204000
     11 C8           1.8960     1.9330     0.9560 ce         1 LTB      -0.136000
     12 C9           0.5490     2.0830     1.0640 cf         1 LTB      -0.210000
     13 C10         -0.4000     1.8330    -0.0110 cf         1 LTB      -0.142000
     14 C11         -1.7360     1.9890     0.1200 c2         1 LTB      -0.271200
     15 C12         -2.7610     1.7360    -0.9630 c3         1 LTB       0.208500
     16 C20         -6.9970    -4.1450     3.0230 c3         1 LTB      -0.090100
     17 O12         -2.6350     2.7750    -1.9320 oh         1 LTB      -0.652000
     18 C19         -7.2660    -2.8600     2.2170 c3         1 LTB      -0.072400
     19 C18         -6.2620    -2.6480     1.0640 c3         1 LTB      -0.079400
     20 C17         -6.5320    -1.3590     0.2570 c3         1 LTB      -0.070400
     21 C16         -5.5280    -1.1430    -0.8950 c3         1 LTB      -0.047200
     22 C15         -5.8090     0.1330    -1.6670 c2         1 LTB      -0.211200
     23 C13         -4.2080     1.7010    -0.4170 c3         1 LTB      -0.076200
     24 H21C         4.5990    -2.2040    -0.9160 hc         1 LTB       0.014200
     25 H22C         6.1990    -2.3400    -0.0230 hc         1 LTB       0.014200
     26 H31C         6.7430    -0.0560    -0.7320 hc         1 LTB       0.046200
     27 H32C         5.2030     0.0770    -1.5780 hc         1 LTB       0.046200
     28 H41C         3.9810    -0.2720     0.5910 hc         1 LTB       0.032200
     29 H42C         5.5110    -0.3650     1.4500 hc         1 LTB       0.032200
     30 H5           4.5440     2.0750    -0.1440 h1         1 LTB       0.076700
     31 H3           6.7510     1.5750     1.6070 ho         1 LTB       0.434000
     32 H6           4.7920     2.2670     2.8490 ha         1 LTB       0.163000
     33 H7           2.4030     2.5040     2.9980 ha         1 LTB       0.161000
     34 H8           2.3040     1.6010    -0.0010 ha         1 LTB       0.181000
     35 H9           0.1400     2.4140     2.0210 ha         1 LTB       0.166000
     36 H10          0.0060     1.5020    -0.9710 ha         1 LTB       0.174000
     37 H11         -2.1470     2.3180     1.0760 ha         1 LTB       0.165000
     38 H12         -2.5520     0.7590    -1.4260 h1         1 LTB       0.078700
     39 HA          -2.5210     3.6050    -1.4230 ho         1 LTB       0.432000
     40 H131        -4.2470     0.9880     0.4140 hc         1 LTB       0.050700
     41 H132        -4.4580     2.6760     0.0200 hc         1 LTB       0.050700
     42 H14         -5.5230     2.1730    -2.1160 ha         1 LTB       0.166000
     43 H15         -6.5460     0.0090    -2.4630 ha         1 LTB       0.162000
     44 H161        -4.5100    -1.1320    -0.4860 hc         1 LTB       0.048200
     45 H162        -5.5680    -2.0020    -1.5760 hc         1 LTB       0.048200
     46 H171        -7.5480    -1.3950    -0.1550 hc         1 LTB       0.035200
     47 H172        -6.4910    -0.4950     0.9330 hc         1 LTB       0.035200
     48 H201        -7.0640    -5.0300     2.3780 hc         1 LTB       0.034033
     49 H202        -5.9970    -4.1190     3.4740 hc         1 LTB       0.034033
     50 H203        -7.7330    -4.2530     3.8290 hc         1 LTB       0.034033
     51 H181        -5.2450    -2.6090     1.4750 hc         1 LTB       0.042700
     52 H182        -6.3020    -3.5110     0.3880 hc         1 LTB       0.042700
     53 H191        -8.2840    -2.9010     1.8110 hc         1 LTB       0.031200
     54 H192        -7.2270    -1.9990     2.8970 hc         1 LTB       0.031200
     55 C14         -5.2380     1.3350    -1.4760 c2         1 LTB      -0.212200
@<TRIPOS>BOND
     1     1     2 1   
     2     2     3 1   
     3     2     4 1   
     4     4     5 1   
     5     4    24 1   
     6     4    25 1   
     7     5     6 1   
     8     5    26 1   
     9     5    27 1   
    10     6     7 1   
    11     6    28 1   
    12     6    29 1   
    13     7     8 1   
    14     7     9 1   
    15     7    30 1   
    16     8    31 1   
    17     9    10 2   
    18     9    32 1   
    19    10    11 1   
    20    10    33 1   
    21    11    12 2   
    22    11    34 1   
    23    12    13 1   
    24    12    35 1   
    25    13    14 2   
    26    13    36 1   
    27    14    15 1   
    28    14    37 1   
    29    15    17 1   
    30    15    23 1   
    31    15    38 1   
    32    16    18 1   
    33    16    48 1   
    34    16    49 1   
    35    16    50 1   
    36    17    39 1   
    37    18    19 1   
    38    18    53 1   
    39    18    54 1   
    40    19    20 1   
    41    19    51 1   
    42    19    52 1   
    43    20    21 1   
    44    20    46 1   
    45    20    47 1   
    46    21    22 1   
    47    21    44 1   
    48    21    45 1   
    49    22    43 1   
    50    22    55 2   
    51    23    40 1   
    52    23    41 1   
    53    23    55 1   
    54    42    55 1   
@<TRIPOS>SUBSTRUCTURE
     1 LTB         1 TEMP              0 ****  ****    0 ROOT
