@<TRIPOS>MOLECULE
LTB
   55    54     1     0     0
SMALL
abcg2


@<TRIPOS>ATOM
      1 O1           5.2250    -4.0710    -0.7470 o          1 LTB      -0.740500
      2 C1           4.8350    -4.0820     0.4380 c          1 LTB       0.717000
      3 O2           4.6290    -5.0960     1.1370 o          1 LTB      -0.740500
      4 C2           4.6010    -2.7270     1.1300 c3         1 LTB      -0.206400
      5 C3           4.5960    -1.5090     0.2200 c3         1 LTB      -0.051400
      6 C4           4.3540    -0.2190     0.9950 c3         1 LTB      -0.108400
      7 C5           4.2730     1.0290     0.1160 c3         1 LTB       0.189500
      8 O3           5.4530     1.2360    -0.6410 oh         1 LTB      -0.650000
      9 C6           3.9610     2.2350     0.9540 c2         1 LTB      -0.201200
     10 C7           2.7880     2.8750     1.0430 ce         1 LTB      -0.204000
     11 C8           1.5760     2.5520     0.3180 ce         1 LTB      -0.136000
     12 C9           0.4110     3.1970     0.5020 cf         1 LTB      -0.210000
     13 C10         -0.7980     2.8790    -0.2260 cf         1 LTB      -0.142000
     14 C11         -1.9770     3.4810    -0.0330 c2         1 LTB      -0.271200
     15 C12         -3.2270     3.1200    -0.7770 c3         1 LTB       0.208500
     16 C20         -4.7750    -5.1180     1.2720 c3         1 LTB      -0.090100
     17 O12         -3.8080     4.2520    -1.3950 oh         1 LTB      -0.652000
     18 C19         -5.6000    -3.8530     1.0770 c3         1 LTB      -0.072400
     19 C18         -4.8860    -2.8090     0.2280 c3         1 LTB      -0.079400
     20 C17         -5.6910    -1.5290     0.0460 c3         1 LTB      -0.070400
     21 C16         -4.9710    -0.4920    -0.8170 c3         1 LTB      -0.047200
     22 C15         -5.7770     0.7560    -0.9950 c2         1 LTB      -0.211200
     23 C13         -4.2220     2.3940     0.1400 c3         1 LTB      -0.076200
     24 H21C         3.6620    -2.7780     1.6910 hc         1 LTB       0.014200
     25 H22C         5.3800    -2.6050     1.8930 hc         1 LTB       0.014200
     26 H31C         5.5440    -1.4500    -0.3180 hc         1 LTB       0.046200
     27 H32C         3.8180    -1.6190    -0.5420 hc         1 LTB       0.046200
     28 H41C         3.4150    -0.2970     1.5530 hc         1 LTB       0.032200
     29 H42C         5.1400    -0.0800     1.7490 hc         1 LTB       0.032200
     30 H5           3.4860     0.8690    -0.6260 h1         1 LTB       0.076700
     31 H3           6.2020     1.2520    -0.0350 ho         1 LTB       0.434000
     32 H6           4.7780     2.5900     1.5770 ha         1 LTB       0.163000
     33 H7           2.7190     3.7150     1.7280 ha         1 LTB       0.161000
     34 H8           1.6100     1.7460    -0.4080 ha         1 LTB       0.181000
     35 H9           0.3530     3.9990     1.2330 ha         1 LTB       0.166000
     36 H10         -0.7240     2.0920    -0.9740 ha         1 LTB       0.174000
     37 H11         -2.0640     4.2630     0.7200 ha         1 LTB       0.165000
     38 H12         -2.9670     2.4400    -1.5940 h1         1 LTB       0.078700
     39 HA          -4.1360     4.8400    -0.7070 ho         1 LTB       0.432000
     40 H131        -3.7160     1.5310     0.5760 hc         1 LTB       0.050700
     41 H132        -4.4790     3.0500     0.9800 hc         1 LTB       0.050700
     42 H14         -6.1810     2.7790    -0.7890 ha         1 LTB       0.166000
     43 H15         -6.7260     0.6210    -1.5090 ha         1 LTB       0.162000
     44 H161        -3.9930    -0.2730    -0.3820 hc         1 LTB       0.048200
     45 H162        -4.7720    -0.9330    -1.8010 hc         1 LTB       0.048200
     46 H171        -6.6610    -1.7660    -0.4040 hc         1 LTB       0.035200
     47 H172        -5.9090    -1.0920     1.0260 hc         1 LTB       0.035200
     48 H201        -4.5450    -5.5880     0.3140 hc         1 LTB       0.034033
     49 H202        -3.8270    -4.8970     1.7650 hc         1 LTB       0.034033
     50 H203        -5.3020    -5.8530     1.8820 hc         1 LTB       0.034033
     51 H181        -3.9210    -2.5680     0.6870 hc         1 LTB       0.042700
     52 H182        -4.6540    -3.2370    -0.7540 hc         1 LTB       0.042700
     53 H191        -6.5570    -4.1050     0.6110 hc         1 LTB       0.031200
     54 H192        -5.8430    -3.4200     2.0530 hc         1 LTB       0.031200
     55 C14         -5.4710     1.9840    -0.5800 c2         1 LTB      -0.212200
@<TRIPOS>BOND
     1     1     2 1   
     2     2     3 1   
     3     2     4 1   
     4     4     5 1   
     5     4    24 1   
     6     4    25 1   
     7     5     6 1   
     8     5    26 1   
     9     5    27 1   
    10     6     7 1   
    11     6    28 1   
    12     6    29 1   
    13     7     8 1   
    14     7     9 1   
    15     7    30 1   
    16     8    31 1   
    17     9    10 2   
    18     9    32 1   
    19    10    11 1   
    20    10    33 1   
    21    11    12 2   
    22    11    34 1   
    23    12    13 1   
    24    12    35 1   
    25    13    14 2   
    26    13    36 1   
    27    14    15 1   
    28    14    37 1   
    29    15    17 1   
    30    15    23 1   
    31    15    38 1   
    32    16    18 1   
    33    16    48 1   
    34    16    49 1   
    35    16    50 1   
    36    17    39 1   
    37    18    19 1   
    38    18    53 1   
    39    18    54 1   
    40    19    20 1   
    41    19    51 1   
    42    19    52 1   
    43    20    21 1   
    44    20    46 1   
    45    20    47 1   
    46    21    22 1   
    47    21    44 1   
    48    21    45 1   
    49    22    43 1   
    50    22    55 2   
    51    23    40 1   
    52    23    41 1   
    53    23    55 1   
    54    42    55 1   
@<TRIPOS>SUBSTRUCTURE
     1 LTB         1 TEMP              0 ****  ****    0 ROOT
