@<TRIPOS>MOLECULE
LTC
  124   125     1     0     0
SMALL
No Charge or Current Charge


@<TRIPOS>ATOM
      1 C1           0.2980    -2.7600    -1.4650 c6         1 LTC       0.165300
      2 O1           1.2190    -3.8040    -1.0450 os         1 LTC      -0.463000
      3 C2           1.0730    -1.7000    -2.3000 c6         1 LTC       0.144300
      4 O2           2.9420    -0.1310    -2.2460 os         1 LTC      -0.439000
      5 C3           2.2420    -1.1260    -1.4550 c6         1 LTC       0.141300
      6 O3           4.2220    -1.7810    -0.0640 oh         1 LTC      -0.715000
      7 C4           3.1730    -2.2750    -0.9350 c6         1 LTC       0.139300
      8 O4           0.2280    -0.6240    -2.7520 oh         1 LTC      -0.723000
      9 C5           2.3070    -3.3570    -0.2080 c6         1 LTC       0.351300
     10 C7          -0.8700    -3.4200    -2.2690 c3         1 LTC       0.167600
     11 O9          -2.0240    -1.9090     4.0730 o          1 LTC      -0.498000
     12 O10         -0.5820    -2.0720     2.2960 os         1 LTC      -0.435100
     13 C11        -14.0230     3.8500     1.1460 c3         1 LTC      -0.088100
     14 O11          1.7780    -2.8180     1.0130 os         1 LTC      -0.459000
     15 C12        -13.1350     3.3930    -0.0270 c3         1 LTC      -0.075400
     16 O12          1.5950    -0.9070     3.5730 os         1 LTC      -0.432100
     17 C13        -12.3200     2.1210     0.2910 c3         1 LTC      -0.075400
     18 O13          3.6410    -1.6680     2.8380 o          1 LTC      -0.502000
     19 C14        -11.4300     1.6620    -0.8850 c3         1 LTC      -0.074400
     20 C15        -10.6150     0.3900    -0.5660 c3         1 LTC      -0.075400
     21 C16         -9.7240    -0.0680    -1.7420 c3         1 LTC      -0.072400
     22 C17         -8.9060    -1.3360    -1.4230 c3         1 LTC      -0.044200
     23 C18         -8.0300    -1.7590    -2.5870 c2         1 LTC      -0.214200
     24 C19         -6.7280    -1.4690    -2.7620 c2         1 LTC      -0.217200
     25 C20         -5.8570    -0.6210    -1.8530 c3         1 LTC      -0.043200
     26 C21         -5.0640    -1.4760    -0.8440 c3         1 LTC      -0.072400
     27 C22         -4.1790    -0.6340     0.1010 c3         1 LTC      -0.076400
     28 C23         -3.3920    -1.4930     1.1130 c3         1 LTC      -0.066400
     29 C24         -2.4810    -0.6540     2.0410 c3         1 LTC      -0.142400
     30 C25         -1.6540    -1.5480     2.9640 c          1 LTC       0.600100
     31 C26          0.3250    -2.9730     2.9790 c3         1 LTC       0.153300
     32 C27          1.1270    -3.7460     1.8990 c3         1 LTC       0.155600
     33 C28          1.1590    -2.2020     4.0550 c3         1 LTC       0.145600
     34 C29          2.7990    -0.7840     2.9330 c          1 LTC       0.611100
     35 C30          3.0560     0.6580     2.5020 c3         1 LTC      -0.141400
     36 C31          3.6790     1.4930     3.6450 c3         1 LTC      -0.066400
     37 C32          3.9920     2.9460     3.2280 c3         1 LTC      -0.076400
     38 C33          4.5930     3.7910     4.3710 c3         1 LTC      -0.077400
     39 C34          4.9070     5.2420     3.9440 c3         1 LTC      -0.077400
     40 C35          5.5080     6.0890     5.0820 c3         1 LTC      -0.089100
     41 C41          2.8940     3.0350    -0.4610 c6         1 LTC       0.196300
     42 O41          2.4710     1.9040    -1.2500 os         1 LTC      -0.473000
     43 C42          4.0070     3.8470    -1.2120 c6         1 LTC       0.098500
     44 N42          3.5220     4.5500    -2.4410 n8         1 LTC      -0.978200
     45 O42          6.2240     3.5560    -2.2760 oh         1 LTC      -0.634000
     46 C43          5.1850     2.8720    -1.5460 c6         1 LTC       0.163300
     47 C44          4.6670     1.6340    -2.3430 c6         1 LTC       0.087700
     48 N44          5.7720     0.6850    -2.6350 ns         1 LTC      -0.483900
     49 C45          3.5250     0.9610    -1.5160 c6         1 LTC       0.385300
     50 C48          5.8580    -0.1270    -3.7410 c          1 LTC       0.610100
     51 O48          5.0470    -0.0900    -4.6550 o          1 LTC      -0.592100
     52 C49          7.0550    -1.0690    -3.7460 c3         1 LTC      -0.179100
     53 H1          -0.1370    -2.2800    -0.5750 h1         1 LTC       0.084700
     54 H2           1.5080    -2.2120    -3.1720 h1         1 LTC       0.054700
     55 H3           1.7940    -0.6270    -0.5810 h1         1 LTC       0.080700
     56 HO3          3.9100    -1.9280     0.8640 ho         1 LTC       0.511000
     57 H4           3.6280    -2.7550    -1.8140 h1         1 LTC       0.062700
     58 HO4          0.8410     0.1380    -2.8970 ho         1 LTC       0.536000
     59 H5           2.9530    -4.2170     0.0290 h2         1 LTC       0.065700
     60 HO5         -2.1910    -4.8790    -2.1650 ho         1 LTC       0.502000
     61 H7          -1.5840    -2.6320    -2.5470 h1         1 LTC       0.037200
     62 H7A         -0.4540    -3.8240    -3.2020 h1         1 LTC       0.037200
     63 H11        -13.4130     4.0770     2.0290 hc         1 LTC       0.031367
     64 H11A       -14.5810     4.7540     0.8740 hc         1 LTC       0.031367
     65 H11B       -14.7440     3.0690     1.4150 hc         1 LTC       0.031367
     66 H12        -13.7700     3.2080    -0.9030 hc         1 LTC       0.036700
     67 H12A       -12.4500     4.2070    -0.2940 hc         1 LTC       0.036700
     68 H13        -11.6880     2.3080     1.1690 hc         1 LTC       0.036700
     69 H13A       -13.0080     1.3090     0.5600 hc         1 LTC       0.036700
     70 H14        -12.0620     1.4750    -1.7630 hc         1 LTC       0.037200
     71 H14A       -10.7410     2.4730    -1.1530 hc         1 LTC       0.037200
     72 H15         -9.9840     0.5780     0.3110 hc         1 LTC       0.036700
     73 H15A       -11.3040    -0.4210    -0.2990 hc         1 LTC       0.036700
     74 H16        -10.3530    -0.2590    -2.6210 hc         1 LTC       0.039200
     75 H16A        -9.0360     0.7430    -2.0110 hc         1 LTC       0.039200
     76 H17         -8.2990    -1.1530    -0.5280 hc         1 LTC       0.044200
     77 H17A        -9.5900    -2.1530    -1.1610 hc         1 LTC       0.044200
     78 H18         -8.5480    -2.3750    -3.3260 ha         1 LTC       0.165000
     79 H19         -6.2060    -1.8470    -3.6430 ha         1 LTC       0.166000
     80 H20         -5.1580    -0.0310    -2.4590 hc         1 LTC       0.043700
     81 H20A        -6.4670     0.1060    -1.3030 hc         1 LTC       0.043700
     82 H21         -5.7680    -2.0690    -0.2470 hc         1 LTC       0.042200
     83 H21A        -4.4340    -2.1870    -1.3940 hc         1 LTC       0.042200
     84 H22         -3.4740    -0.0460    -0.4990 hc         1 LTC       0.037200
     85 H22A        -4.8100     0.0790     0.6470 hc         1 LTC       0.037200
     86 H23         -4.0960    -2.0730     1.7250 hc         1 LTC       0.053200
     87 H23A        -2.7770    -2.2180     0.5630 hc         1 LTC       0.053200
     88 H24         -1.7940    -0.0940     1.3970 hc         1 LTC       0.079200
     89 H24A        -3.0960     0.0250     2.6430 hc         1 LTC       0.079200
     90 H26         -0.2510    -3.7380     3.5160 h1         1 LTC       0.074700
     91 H27          0.4220    -4.3800     1.3450 h1         1 LTC       0.053700
     92 H27A         1.8610    -4.4030     2.3830 h1         1 LTC       0.053700
     93 H28          2.0030    -2.8180     4.3930 h1         1 LTC       0.073200
     94 H28A         0.5130    -2.0560     4.9300 h1         1 LTC       0.073200
     95 H30          3.7430     0.6560     1.6500 hc         1 LTC       0.076700
     96 H30A         2.1000     1.1250     2.2370 hc         1 LTC       0.076700
     97 H31          2.9930     1.5010     4.5020 hc         1 LTC       0.053200
     98 H31A         4.6050     1.0080     3.9830 hc         1 LTC       0.053200
     99 H32          4.6960     2.9350     2.3860 hc         1 LTC       0.031700
    100 H32A         3.0710     3.4260     2.8730 hc         1 LTC       0.031700
    101 H33          3.8920     3.8070     5.2150 hc         1 LTC       0.042200
    102 H33A         5.5140     3.3130     4.7270 hc         1 LTC       0.042200
    103 H34          5.6090     5.2290     3.1010 hc         1 LTC       0.034200
    104 H34A         3.9880     5.7240     3.5890 hc         1 LTC       0.034200
    105 H35          5.7140     7.1070     4.7330 hc         1 LTC       0.033700
    106 H35A         4.8140     6.1500     5.9290 hc         1 LTC       0.033700
    107 H35B         6.4490     5.6510     5.4360 hc         1 LTC       0.033700
    108 H41          3.3140     2.6580     0.4800 h1         1 LTC       0.025700
    109 H42          4.3920     4.6260    -0.5370 h1         1 LTC       0.016700
    110 HN42         3.0930     5.4430    -2.1730 hn         1 LTC       0.402500
    111 HN4A         4.3440     4.8270    -2.9910 hn         1 LTC       0.402500
    112 HO42         6.6080     4.2240    -1.6680 ho         1 LTC       0.439000
    113 H43          5.5980     2.5070    -0.5930 h1         1 LTC       0.024700
    114 H44          4.2330     1.9840    -3.2890 h1         1 LTC       0.136700
    115 HN44         6.5140     0.5900    -1.9530 hn         1 LTC       0.303500
    116 H45          3.9440     0.6010    -0.5680 h2         1 LTC       0.018700
    117 H47          0.9250     3.2610     0.4740 hc         1 LTC       0.049033
    118 H47A         1.8940     4.7410     0.4890 hc         1 LTC       0.049033
    119 H47B         1.1120     4.2080    -1.0110 hc         1 LTC       0.049033
    120 H49          7.0340    -1.6760    -2.8340 hc         1 LTC       0.056033
    121 H49A         7.0980    -1.6930    -4.6460 hc         1 LTC       0.056033
    122 H49B         7.9720    -0.4830    -3.6150 hc         1 LTC       0.056033
    123 O5          -1.5530    -4.4630    -1.5410 oh         1 LTC      -0.717000
    124 C47          1.6320     3.8610    -0.1110 c3         1 LTC      -0.091100
@<TRIPOS>BOND
     1     1     2 1   
     2     1     3 1   
     3     1    10 1   
     4     1    53 1   
     5     2     9 1   
     6     3     5 1   
     7     3     8 1   
     8     3    54 1   
     9     4     5 1   
    10     4    49 1   
    11     5     7 1   
    12     5    55 1   
    13     6     7 1   
    14     6    56 1   
    15     7     9 1   
    16     7    57 1   
    17     8    58 1   
    18     9    14 1   
    19     9    59 1   
    20    10    61 1   
    21    10    62 1   
    22    10   123 1   
    23    11    30 2   
    24    12    30 1   
    25    12    31 1   
    26    13    15 1   
    27    13    63 1   
    28    13    64 1   
    29    13    65 1   
    30    14    32 1   
    31    15    17 1   
    32    15    66 1   
    33    15    67 1   
    34    16    33 1   
    35    16    34 1   
    36    17    19 1   
    37    17    68 1   
    38    17    69 1   
    39    18    34 2   
    40    19    20 1   
    41    19    70 1   
    42    19    71 1   
    43    20    21 1   
    44    20    72 1   
    45    20    73 1   
    46    21    22 1   
    47    21    74 1   
    48    21    75 1   
    49    22    23 1   
    50    22    76 1   
    51    22    77 1   
    52    23    24 2   
    53    23    78 1   
    54    24    25 1   
    55    24    79 1   
    56    25    26 1   
    57    25    80 1   
    58    25    81 1   
    59    26    27 1   
    60    26    82 1   
    61    26    83 1   
    62    27    28 1   
    63    27    84 1   
    64    27    85 1   
    65    28    29 1   
    66    28    86 1   
    67    28    87 1   
    68    29    30 1   
    69    29    88 1   
    70    29    89 1   
    71    31    32 1   
    72    31    33 1   
    73    31    90 1   
    74    32    91 1   
    75    32    92 1   
    76    33    93 1   
    77    33    94 1   
    78    34    35 1   
    79    35    36 1   
    80    35    95 1   
    81    35    96 1   
    82    36    37 1   
    83    36    97 1   
    84    36    98 1   
    85    37    38 1   
    86    37    99 1   
    87    37   100 1   
    88    38    39 1   
    89    38   101 1   
    90    38   102 1   
    91    39    40 1   
    92    39   103 1   
    93    39   104 1   
    94    40   105 1   
    95    40   106 1   
    96    40   107 1   
    97    41    42 1   
    98    41    43 1   
    99    41   108 1   
   100    41   124 1   
   101    42    49 1   
   102    43    44 1   
   103    43    46 1   
   104    43   109 1   
   105    44   110 1   
   106    44   111 1   
   107    45    46 1   
   108    45   112 1   
   109    46    47 1   
   110    46   113 1   
   111    47    48 1   
   112    47    49 1   
   113    47   114 1   
   114    48    50 1   
   115    48   115 1   
   116    49   116 1   
   117    50    51 2   
   118    50    52 1   
   119    52   120 1   
   120    52   121 1   
   121    52   122 1   
   122    60   123 1   
   123   117   124 1   
   124   118   124 1   
   125   119   124 1   
@<TRIPOS>SUBSTRUCTURE
     1 LTC         1 TEMP              0 ****  ****    0 ROOT
