@<TRIPOS>MOLECULE
LTC
  124   125     1     0     0
SMALL
abcg2


@<TRIPOS>ATOM
      1 C1           0.9570    -2.4110    -1.4740 c6         1 LTC       0.165300
      2 O1           2.1530    -3.1500    -1.2750 os         1 LTC      -0.463000
      3 C2           1.3000    -1.0050    -1.9580 c6         1 LTC       0.144300
      4 O2           2.6960     0.8780    -1.5820 os         1 LTC      -0.439000
      5 C3           2.2720    -0.3390    -0.9880 c6         1 LTC       0.141300
      6 O3           4.3010    -0.6030     0.2140 oh         1 LTC      -0.715000
      7 C4           3.4800    -1.2270    -0.7350 c6         1 LTC       0.139300
      8 O4           0.1030    -0.2770    -2.0630 oh         1 LTC      -0.723000
      9 C5           3.0250    -2.6290    -0.3110 c6         1 LTC       0.351300
     10 C7           0.1240    -3.1650    -2.4890 c3         1 LTC       0.167600
     11 O9          -1.5240    -4.6550     2.7990 o          1 LTC      -0.498000
     12 O10         -0.0710    -3.3140     1.7510 os         1 LTC      -0.435100
     13 C11        -11.8230     5.8520    -2.2540 c3         1 LTC      -0.088100
     14 O11          2.4470    -2.5660     0.9530 os         1 LTC      -0.459000
     15 C12        -11.9360     4.3400    -2.4030 c3         1 LTC      -0.075400
     16 O12          1.5150    -1.6270     3.5330 os         1 LTC      -0.432100
     17 C13        -10.9950     3.5790    -1.4780 c3         1 LTC      -0.075400
     18 O13          3.6930    -1.8990     3.9690 o          1 LTC      -0.502000
     19 C14        -11.0960     2.0660    -1.6250 c3         1 LTC      -0.074400
     20 C15        -10.1620     1.3060    -0.6920 c3         1 LTC      -0.075400
     21 C16        -10.2440    -0.2060    -0.8590 c3         1 LTC      -0.072400
     22 C17         -9.3190    -0.9610     0.0970 c3         1 LTC      -0.044200
     23 C18         -9.4300    -2.4460    -0.0580 c2         1 LTC      -0.214200
     24 C19         -8.4690    -3.2990    -0.4110 c2         1 LTC      -0.217200
     25 C20         -7.0340    -2.9820    -0.6970 c3         1 LTC      -0.043200
     26 C21         -6.0990    -3.5060     0.3950 c3         1 LTC      -0.072400
     27 C22         -4.6370    -3.1790     0.1230 c3         1 LTC      -0.076400
     28 C23         -3.7010    -3.7080     1.2020 c3         1 LTC      -0.066400
     29 C24         -2.2560    -3.3240     0.9270 c3         1 LTC      -0.142400
     30 C25         -1.2770    -3.8470     1.9390 c          1 LTC       0.600100
     31 C26          1.0470    -3.7960     2.4990 c3         1 LTC       0.153300
     32 C27          2.2270    -3.8290     1.5460 c3         1 LTC       0.155600
     33 C28          1.2300    -3.0000     3.7760 c3         1 LTC       0.145600
     34 C29          2.7760    -1.2030     3.6150 c          1 LTC       0.611100
     35 C30          2.8910     0.2350     3.2000 c3         1 LTC      -0.141400
     36 C31          4.1680     0.9180     3.6650 c3         1 LTC      -0.066400
     37 C32          4.4140     2.2090     2.9000 c3         1 LTC      -0.076400
     38 C33          5.6110     3.0060     3.3990 c3         1 LTC      -0.077400
     39 C34          5.9090     4.2340     2.5480 c3         1 LTC      -0.077400
     40 C35          7.0760     5.0550     3.0780 c3         1 LTC      -0.089100
     41 C41          1.1880     3.7900    -0.2540 c6         1 LTC       0.196300
     42 O41          1.3700     2.5980    -0.9990 os         1 LTC      -0.473000
     43 C42          2.1940     4.8590    -0.6920 c6         1 LTC       0.098500
     44 N42          1.9810     5.2460    -2.0730 n8         1 LTC      -0.978200
     45 O42          4.6100     5.1610    -0.9720 oh         1 LTC      -0.634000
     46 C43          3.6070     4.2890    -0.5210 c6         1 LTC       0.163300
     47 C44          3.7390     2.9780    -1.2890 c6         1 LTC       0.087700
     48 N44          5.0230     2.3600    -1.0890 ns         1 LTC      -0.483900
     49 C45          2.6330     2.0250    -0.8250 c6         1 LTC       0.385300
     50 C48          5.7840     1.8640    -2.0850 c          1 LTC       0.610100
     51 O48          5.5600     2.0720    -3.2680 o          1 LTC      -0.592100
     52 C49          6.9570     1.0300    -1.6350 c3         1 LTC      -0.179100
     53 H1           0.3900    -2.3380    -0.5400 h1         1 LTC       0.084700
     54 H2           1.8020    -1.0870    -2.9350 h1         1 LTC       0.054700
     55 H3           1.7460    -0.1450    -0.0430 h1         1 LTC       0.080700
     56 HO3          5.1170    -1.1040     0.3050 ho         1 LTC       0.511000
     57 H4           4.0090    -1.3560    -1.6910 h1         1 LTC       0.062700
     58 HO4          0.3170     0.6270    -2.3160 ho         1 LTC       0.536000
     59 H5           3.8860    -3.3120    -0.3120 h2         1 LTC       0.065700
     60 HO5         -0.9000    -4.8050    -2.5240 ho         1 LTC       0.502000
     61 H7          -0.7550    -2.5600    -2.7320 h1         1 LTC       0.037200
     62 H7A          0.7020    -3.2800    -3.4170 h1         1 LTC       0.037200
     63 H11        -10.8130     6.1970    -2.4810 hc         1 LTC       0.031367
     64 H11A       -12.5080     6.3720    -2.9250 hc         1 LTC       0.031367
     65 H11B       -12.0560     6.1670    -1.2360 hc         1 LTC       0.031367
     66 H12        -12.9670     4.0300    -2.2040 hc         1 LTC       0.036700
     67 H12A       -11.7290     4.0580    -3.4400 hc         1 LTC       0.036700
     68 H13         -9.9640     3.8940    -1.6730 hc         1 LTC       0.036700
     69 H13A       -11.2050     3.8580    -0.4400 hc         1 LTC       0.036700
     70 H14        -12.1290     1.7510    -1.4370 hc         1 LTC       0.037200
     71 H14A       -10.8780     1.7870    -2.6620 hc         1 LTC       0.037200
     72 H15         -9.1310     1.6330    -0.8670 hc         1 LTC       0.036700
     73 H15A       -10.3920     1.5700     0.3460 hc         1 LTC       0.036700
     74 H16        -11.2770    -0.5360    -0.7000 hc         1 LTC       0.039200
     75 H16A        -9.9930    -0.4750    -1.8900 hc         1 LTC       0.039200
     76 H17         -8.2910    -0.6240    -0.0520 hc         1 LTC       0.044200
     77 H17A        -9.5840    -0.6890     1.1250 hc         1 LTC       0.044200
     78 H18        -10.4200    -2.8540     0.1320 ha         1 LTC       0.165000
     79 H19         -8.7310    -4.3530    -0.4740 ha         1 LTC       0.166000
     80 H20         -6.7470    -3.4360    -1.6510 hc         1 LTC       0.043700
     81 H20A        -6.8830    -1.9070    -0.8130 hc         1 LTC       0.043700
     82 H21         -6.3970    -3.0750     1.3560 hc         1 LTC       0.042200
     83 H21A        -6.2220    -4.5900     0.4940 hc         1 LTC       0.042200
     84 H22         -4.3430    -3.5940    -0.8470 hc         1 LTC       0.037200
     85 H22A        -4.5210    -2.0940     0.0360 hc         1 LTC       0.037200
     86 H23         -4.0080    -3.3140     2.1750 hc         1 LTC       0.053200
     87 H23A        -3.7940    -4.7950     1.2640 hc         1 LTC       0.053200
     88 H24         -1.9330    -3.7020    -0.0500 hc         1 LTC       0.079200
     89 H24A        -2.1510    -2.2370     0.8660 hc         1 LTC       0.079200
     90 H26          0.8770    -4.8300     2.8150 h1         1 LTC       0.074700
     91 H27          2.0150    -4.5880     0.7870 h1         1 LTC       0.053700
     92 H27A         3.1150    -4.1600     2.0960 h1         1 LTC       0.053700
     93 H28          2.0100    -3.4710     4.3740 h1         1 LTC       0.073200
     94 H28A         0.3080    -3.0240     4.3580 h1         1 LTC       0.073200
     95 H30          2.8560     0.2270     2.1060 hc         1 LTC       0.076700
     96 H30A         2.0070     0.7850     3.5300 hc         1 LTC       0.076700
     97 H31          4.1100     1.1210     4.7380 hc         1 LTC       0.053200
     98 H31A         5.0220     0.2530     3.5200 hc         1 LTC       0.053200
     99 H32          4.5690     1.9410     1.8490 hc         1 LTC       0.031700
    100 H32A         3.5190     2.8410     2.9220 hc         1 LTC       0.031700
    101 H33          5.4320     3.3150     4.4340 hc         1 LTC       0.042200
    102 H33A         6.4960     2.3600     3.4220 hc         1 LTC       0.042200
    103 H34          6.1230     3.9230     1.5200 hc         1 LTC       0.034200
    104 H34A         5.0140     4.8630     2.4940 hc         1 LTC       0.034200
    105 H35          7.2820     5.9150     2.4390 hc         1 LTC       0.033700
    106 H35A         6.8700     5.4320     4.0810 hc         1 LTC       0.033700
    107 H35B         7.9870     4.4570     3.1310 hc         1 LTC       0.033700
    108 H41          1.3770     3.5850     0.8130 h1         1 LTC       0.025700
    109 H42          2.0930     5.6960     0.0170 h1         1 LTC       0.016700
    110 HN42         1.1330     5.7930    -2.1520 hn         1 LTC       0.402500
    111 HN4A         2.7300     5.8620    -2.3630 hn         1 LTC       0.402500
    112 HO42         4.6310     5.9310    -0.3930 ho         1 LTC       0.439000
    113 H43          3.7350     4.0800     0.5530 h1         1 LTC       0.024700
    114 H44          3.6120     3.1710    -2.3560 h1         1 LTC       0.136700
    115 HN44         5.2340     2.0430    -0.1560 hn         1 LTC       0.303500
    116 H45          2.7870     1.8070     0.2500 h2         1 LTC       0.018700
    117 H47         -0.9270     3.4460    -0.0270 hc         1 LTC       0.049033
    118 H47A        -0.4430     5.1290     0.1570 hc         1 LTC       0.049033
    119 H47B        -0.5120     4.3990    -1.4530 hc         1 LTC       0.049033
    120 H49          6.7970    -0.0030    -1.9450 hc         1 LTC       0.056033
    121 H49A         7.8650     1.3800    -2.1220 hc         1 LTC       0.056033
    122 H49B         7.1170     1.0380    -0.5590 hc         1 LTC       0.056033
    123 O5          -0.2410    -4.4120    -1.9450 oh         1 LTC      -0.717000
    124 C47         -0.2560     4.2160    -0.4090 c3         1 LTC      -0.091100
@<TRIPOS>BOND
     1     1     2 1   
     2     1     3 1   
     3     1    10 1   
     4     1    53 1   
     5     2     9 1   
     6     3     5 1   
     7     3     8 1   
     8     3    54 1   
     9     4     5 1   
    10     4    49 1   
    11     5     7 1   
    12     5    55 1   
    13     6     7 1   
    14     6    56 1   
    15     7     9 1   
    16     7    57 1   
    17     8    58 1   
    18     9    14 1   
    19     9    59 1   
    20    10    61 1   
    21    10    62 1   
    22    10   123 1   
    23    11    30 2   
    24    12    30 1   
    25    12    31 1   
    26    13    15 1   
    27    13    63 1   
    28    13    64 1   
    29    13    65 1   
    30    14    32 1   
    31    15    17 1   
    32    15    66 1   
    33    15    67 1   
    34    16    33 1   
    35    16    34 1   
    36    17    19 1   
    37    17    68 1   
    38    17    69 1   
    39    18    34 2   
    40    19    20 1   
    41    19    70 1   
    42    19    71 1   
    43    20    21 1   
    44    20    72 1   
    45    20    73 1   
    46    21    22 1   
    47    21    74 1   
    48    21    75 1   
    49    22    23 1   
    50    22    76 1   
    51    22    77 1   
    52    23    24 2   
    53    23    78 1   
    54    24    25 1   
    55    24    79 1   
    56    25    26 1   
    57    25    80 1   
    58    25    81 1   
    59    26    27 1   
    60    26    82 1   
    61    26    83 1   
    62    27    28 1   
    63    27    84 1   
    64    27    85 1   
    65    28    29 1   
    66    28    86 1   
    67    28    87 1   
    68    29    30 1   
    69    29    88 1   
    70    29    89 1   
    71    31    32 1   
    72    31    33 1   
    73    31    90 1   
    74    32    91 1   
    75    32    92 1   
    76    33    93 1   
    77    33    94 1   
    78    34    35 1   
    79    35    36 1   
    80    35    95 1   
    81    35    96 1   
    82    36    37 1   
    83    36    97 1   
    84    36    98 1   
    85    37    38 1   
    86    37    99 1   
    87    37   100 1   
    88    38    39 1   
    89    38   101 1   
    90    38   102 1   
    91    39    40 1   
    92    39   103 1   
    93    39   104 1   
    94    40   105 1   
    95    40   106 1   
    96    40   107 1   
    97    41    42 1   
    98    41    43 1   
    99    41   108 1   
   100    41   124 1   
   101    42    49 1   
   102    43    44 1   
   103    43    46 1   
   104    43   109 1   
   105    44   110 1   
   106    44   111 1   
   107    45    46 1   
   108    45   112 1   
   109    46    47 1   
   110    46   113 1   
   111    47    48 1   
   112    47    49 1   
   113    47   114 1   
   114    48    50 1   
   115    48   115 1   
   116    49   116 1   
   117    50    51 2   
   118    50    52 1   
   119    52   120 1   
   120    52   121 1   
   121    52   122 1   
   122    60   123 1   
   123   117   124 1   
   124   118   124 1   
   125   119   124 1   
@<TRIPOS>SUBSTRUCTURE
     1 LTC         1 TEMP              0 ****  ****    0 ROOT
