@<TRIPOS>MOLECULE
LTD
   72    71     1     0     0
SMALL
bcc


@<TRIPOS>ATOM
      1 O2          -9.5980     1.8540    -2.5670 o          1 LTD      -0.853800
      2 C1          -8.8130     2.2930    -1.6990 c          1 LTD       0.926600
      3 O1          -8.9860     3.3120    -1.0010 o          1 LTD      -0.853800
      4 C2          -7.5300     1.4750    -1.4730 c3         1 LTD      -0.205400
      5 C3          -6.4830     2.1150    -0.5760 c3         1 LTD      -0.049400
      6 C4          -5.2540     1.2270    -0.4150 c3         1 LTD      -0.116400
      7 C5          -4.2150     1.7820     0.5540 c3         1 LTD       0.165100
      8 O3          -3.7860     3.0750     0.1860 oh         1 LTD      -0.594800
      9 C6          -2.9970     0.8520     0.6970 c3         1 LTD       0.004600
     10 C7          -1.9080     1.4640     1.5060 c2         1 LTD      -0.103200
     11 C8          -0.6280     1.5150     1.1190 ce         1 LTD      -0.173000
     12 C9           0.4440     2.0460     1.9300 ce         1 LTD      -0.086000
     13 C10          1.7280     2.0870     1.5300 cf         1 LTD      -0.159000
     14 C11          2.8040     2.5930     2.3550 cf         1 LTD      -0.111000
     15 C12          4.1010     2.6570     2.0230 c2         1 LTD      -0.176200
     16 C13          4.7250     2.2600     0.7190 c3         1 LTD      -0.013000
     17 C14          5.3690     3.4470     0.0590 c2         1 LTD      -0.145200
     18 C15          6.6510     3.5860    -0.2740 c2         1 LTD      -0.187200
     19 C16          7.7510     2.5830    -0.1230 c3         1 LTD      -0.038200
     20 C17          8.2600     2.0970    -1.4820 c3         1 LTD      -0.073400
     21 C18          9.3970     1.0900    -1.3720 c3         1 LTD      -0.075400
     22 C19          9.9050     0.6150    -2.7280 c3         1 LTD      -0.075400
     23 C20         11.0210    -0.4140    -2.6210 c3         1 LTD      -0.087100
     24 O32         -0.0460    -4.4510    -2.4920 o          1 LTD      -0.833800
     25 C21          0.8720    -4.8960    -1.7760 c          1 LTD       0.922600
     26 O31          1.9500    -5.3900    -2.1430 o          1 LTD      -0.833800
     27 CA3          0.6590    -4.8390    -0.2480 c3         1 LTD      -0.061000
     28 C22         -1.0140    -3.9300     1.3020 c          1 LTD       0.611100
     29 O33         -0.3830    -4.2140     2.3150 o          1 LTD      -0.669100
     30 CA2         -2.3390    -3.1590     1.3820 c3         1 LTD       0.092500
     31 SG2         -3.5330    -0.7060     1.5060 ss         1 LTD      -0.291200
     32 N2          -3.1030    -3.4310     2.5770 n8         1 LTD      -0.875800
     33 H2          -7.8210     0.5020    -1.0560 hc         1 LTD       0.017200
     34 H3          -7.0900     1.2400    -2.4490 hc         1 LTD       0.017200
     35 H4          -6.1910     3.0850    -0.9850 hc         1 LTD       0.042200
     36 H5          -6.9150     2.3160     0.4080 hc         1 LTD       0.042200
     37 H6          -5.5660     0.2380    -0.0690 hc         1 LTD       0.043200
     38 H7          -4.7780     1.0630    -1.3910 hc         1 LTD       0.043200
     39 H8          -4.6750     1.9020     1.5420 h1         1 LTD       0.077700
     40 H9          -3.4230     3.0300    -0.7060 ho         1 LTD       0.396000
     41 H10         -2.6250     0.5950    -0.3020 h1         1 LTD       0.068700
     42 H11         -2.1910     1.8440     2.4850 ha         1 LTD       0.130000
     43 H12         -0.3570     1.1230     0.1410 ha         1 LTD       0.125000
     44 H13          0.1790     2.4200     2.9160 ha         1 LTD       0.113000
     45 H14          1.9700     1.7100     0.5420 ha         1 LTD       0.127000
     46 H15          2.5180     2.9440     3.3420 ha         1 LTD       0.111000
     47 H16          4.7910     3.0580     2.7600 ha         1 LTD       0.108000
     48 H17          5.4630     1.4740     0.8960 hc         1 LTD       0.058200
     49 H18          3.9800     1.8320     0.0440 hc         1 LTD       0.058200
     50 H19          4.6960     4.2730    -0.1500 ha         1 LTD       0.119000
     51 H20          6.9440     4.5210    -0.7450 ha         1 LTD       0.107000
     52 H21          8.5830     3.0380     0.4240 hc         1 LTD       0.040700
     53 H22          7.4260     1.7250     0.4710 hc         1 LTD       0.040700
     54 H23          7.4290     1.6490    -2.0350 hc         1 LTD       0.040700
     55 H24          8.5910     2.9570    -2.0740 hc         1 LTD       0.040700
     56 H25         10.2260     1.5320    -0.8080 hc         1 LTD       0.035700
     57 H26          9.0610     0.2260    -0.7870 hc         1 LTD       0.035700
     58 H27          9.0710     0.1920    -3.2960 hc         1 LTD       0.037700
     59 H28         10.2560     1.4770    -3.3040 hc         1 LTD       0.037700
     60 H29         11.3670    -0.7340    -3.6040 hc         1 LTD       0.028700
     61 H30         11.8810    -0.0120    -2.0830 hc         1 LTD       0.028700
     62 H31         10.6870    -1.3040    -2.0840 hc         1 LTD       0.028700
     63 H33          0.7030    -5.8580     0.1510 h1         1 LTD       0.034200
     64 H34          1.4890    -4.2920     0.2090 h1         1 LTD       0.034200
     65 H35         -1.1580    -3.9650    -0.7370 hn         1 LTD       0.344500
     66 H36         -2.9580    -3.4160     0.5180 h1         1 LTD       0.078700
     67 H37         -1.2880    -1.3990     2.0790 h1         1 LTD       0.068700
     68 H38         -1.5660    -1.4260     0.3380 h1         1 LTD       0.068700
     69 H39         -3.4250    -4.3910     2.5730 hn         1 LTD       0.345800
     70 H40         -2.5050    -3.3370     3.3900 hn         1 LTD       0.345800
     71 CB2         -2.0090    -1.6710     1.3050 c3         1 LTD       0.017700
     72 N3          -0.6000    -4.2150     0.0690 ns         1 LTD      -0.521900
@<TRIPOS>BOND
     1     1     2 1   
     2     2     3 1   
     3     2     4 1   
     4     4     5 1   
     5     4    33 1   
     6     4    34 1   
     7     5     6 1   
     8     5    35 1   
     9     5    36 1   
    10     6     7 1   
    11     6    37 1   
    12     6    38 1   
    13     7     8 1   
    14     7     9 1   
    15     7    39 1   
    16     8    40 1   
    17     9    10 1   
    18     9    31 1   
    19     9    41 1   
    20    10    11 2   
    21    10    42 1   
    22    11    12 1   
    23    11    43 1   
    24    12    13 2   
    25    12    44 1   
    26    13    14 1   
    27    13    45 1   
    28    14    15 2   
    29    14    46 1   
    30    15    16 1   
    31    15    47 1   
    32    16    17 1   
    33    16    48 1   
    34    16    49 1   
    35    17    18 2   
    36    17    50 1   
    37    18    19 1   
    38    18    51 1   
    39    19    20 1   
    40    19    52 1   
    41    19    53 1   
    42    20    21 1   
    43    20    54 1   
    44    20    55 1   
    45    21    22 1   
    46    21    56 1   
    47    21    57 1   
    48    22    23 1   
    49    22    58 1   
    50    22    59 1   
    51    23    60 1   
    52    23    61 1   
    53    23    62 1   
    54    24    25 1   
    55    25    26 1   
    56    25    27 1   
    57    27    63 1   
    58    27    64 1   
    59    27    72 1   
    60    28    29 2   
    61    28    30 1   
    62    28    72 1   
    63    30    32 1   
    64    30    66 1   
    65    30    71 1   
    66    31    71 1   
    67    32    69 1   
    68    32    70 1   
    69    65    72 1   
    70    67    71 1   
    71    68    71 1   
@<TRIPOS>SUBSTRUCTURE
     1 LTD         1 TEMP              0 ****  ****    0 ROOT
