@<TRIPOS>MOLECULE
LTD
   72    71     1     0     0
SMALL
No Charge or Current Charge


@<TRIPOS>ATOM
      1 O2          -8.3760     3.7540    -2.6340 o          1 LTD      -0.748500
      2 C1          -8.4190     2.7840    -1.8930 c          1 LTD       0.716000
      3 O1          -9.3630     2.5380    -1.1570 o          1 LTD      -0.748500
      4 C2          -7.1940     1.8530    -1.8410 c3         1 LTD      -0.205400
      5 C3          -6.1950     2.3440    -0.7650 c3         1 LTD      -0.049400
      6 C4          -4.9320     1.4540    -0.6570 c3         1 LTD      -0.116400
      7 C5          -3.9380     1.8900     0.4530 c3         1 LTD       0.188300
      8 O3          -3.4540     3.2100     0.1510 oh         1 LTD      -0.657000
      9 C6          -2.7360     0.9090     0.6150 c3         1 LTD       0.052500
     10 C7          -1.6490     1.4370     1.5340 c2         1 LTD      -0.153200
     11 C8          -0.3310     1.4920     1.2430 ce         1 LTD      -0.223000
     12 C9           0.6790     2.0100     2.1710 ce         1 LTD      -0.136000
     13 C10          2.0090     2.0730     1.8990 cf         1 LTD      -0.209000
     14 C11          3.0160     2.5890     2.8200 cf         1 LTD      -0.161000
     15 C12          4.3440     2.6610     2.5680 c2         1 LTD      -0.226200
     16 C13          5.0690     2.2300     1.3080 c3         1 LTD      -0.013000
     17 C14          4.9370     3.2800     0.2190 c2         1 LTD      -0.195200
     18 C15          5.9100     3.7540    -0.5810 c2         1 LTD      -0.237200
     19 C16          7.3770     3.3660    -0.5710 c3         1 LTD      -0.038200
     20 C17          7.6520     2.1080    -1.4220 c3         1 LTD      -0.073400
     21 C18          9.1400     1.6920    -1.4270 c3         1 LTD      -0.075400
     22 C19          9.4120     0.4320    -2.2770 c3         1 LTD      -0.075400
     23 C20         10.8960     0.0160    -2.2820 c3         1 LTD      -0.087100
     24 O32         -1.7160    -6.6880    -2.1010 o          1 LTD      -0.728500
     25 C21         -0.5060    -6.5390    -1.9880 c          1 LTD       0.712000
     26 O31          0.2980    -6.9060    -2.8330 o          1 LTD      -0.728500
     27 CA3          0.0410    -5.8010    -0.7330 c3         1 LTD      -0.061000
     28 C22         -0.7270    -4.0480     0.9350 c          1 LTD       0.544100
     29 O33          0.3800    -3.9620     1.4560 o          1 LTD      -0.669100
     30 CA2         -1.9660    -3.2230     1.4320 c3         1 LTD       0.092500
     31 SG2         -3.2970    -0.7190     1.3040 ss         1 LTD      -0.387000
     32 N2          -2.3240    -3.4480     2.8820 n8         1 LTD      -0.986200
     33 H2          -7.4930     0.8430    -1.5340 hc         1 LTD       0.017200
     34 H3          -6.6490     1.8820    -2.7930 hc         1 LTD       0.017200
     35 H4          -5.8990     3.3750    -0.9980 hc         1 LTD       0.042200
     36 H5          -6.6990     2.3720     0.2090 hc         1 LTD       0.042200
     37 H6          -5.2550     0.4240    -0.4620 hc         1 LTD       0.043200
     38 H7          -4.4140     1.4390    -1.6240 hc         1 LTD       0.043200
     39 H8          -4.4820     1.9100     1.4090 h1         1 LTD       0.077700
     40 H9          -2.8260     3.1190    -0.5970 ho         1 LTD       0.435000
     41 H10         -2.3090     0.7220    -0.3800 h1         1 LTD       0.068700
     42 H11         -2.0180     1.7880     2.4990 ha         1 LTD       0.180000
     43 H12          0.0300     1.1380     0.2750 ha         1 LTD       0.175000
     44 H13          0.3250     2.3650     3.1420 ha         1 LTD       0.163000
     45 H14          2.3500     1.7150     0.9250 ha         1 LTD       0.177000
     46 H15          2.6530     2.9450     3.7880 ha         1 LTD       0.161000
     47 H16          5.0010     3.0710     3.3380 ha         1 LTD       0.158000
     48 H17          6.1200     2.0270     1.5420 hc         1 LTD       0.058200
     49 H18          4.6630     1.2760     0.9500 hc         1 LTD       0.058200
     50 H19          3.9200     3.6590     0.1010 ha         1 LTD       0.169000
     51 H20          5.6640     4.5100    -1.3300 ha         1 LTD       0.157000
     52 H21          7.9800     4.1990    -0.9520 hc         1 LTD       0.040700
     53 H22          7.7240     3.1900     0.4540 hc         1 LTD       0.040700
     54 H23          7.0470     1.2770    -1.0390 hc         1 LTD       0.040700
     55 H24          7.3250     2.2940    -2.4520 hc         1 LTD       0.040700
     56 H25          9.7450     2.5230    -1.8100 hc         1 LTD       0.035700
     57 H26          9.4660     1.5070    -0.3960 hc         1 LTD       0.035700
     58 H27          8.8100    -0.4020    -1.8960 hc         1 LTD       0.037700
     59 H28          9.0900     0.6140    -3.3100 hc         1 LTD       0.037700
     60 H29         11.0390    -0.8800    -2.8970 hc         1 LTD       0.028700
     61 H30         11.5220     0.8180    -2.6930 hc         1 LTD       0.028700
     62 H31         11.2400    -0.2070    -1.2650 hc         1 LTD       0.028700
     63 H33          0.3550    -6.5530     0.0020 h1         1 LTD       0.034200
     64 H34          0.9140    -5.2040    -1.0270 h1         1 LTD       0.034200
     65 H35         -1.9170    -4.9480    -0.4790 hn         1 LTD       0.344500
     66 H36         -2.8240    -3.5520     0.8290 h1         1 LTD       0.078700
     67 H37         -0.9620    -1.3130     1.7730 h1         1 LTD       0.068700
     68 H38         -1.3960    -1.6200     0.0790 h1         1 LTD       0.068700
     69 H39         -2.4790    -4.4510     3.0440 hn         1 LTD       0.401000
     70 H40         -1.4980    -3.2440     3.4590 hn         1 LTD       0.401000
     71 CB2         -1.7430    -1.7200     1.1170 c3         1 LTD       0.065600
     72 N3          -0.9690    -4.9100    -0.1150 ns         1 LTD      -0.454900
@<TRIPOS>BOND
     1     1     2 1   
     2     2     3 1   
     3     2     4 1   
     4     4     5 1   
     5     4    33 1   
     6     4    34 1   
     7     5     6 1   
     8     5    35 1   
     9     5    36 1   
    10     6     7 1   
    11     6    37 1   
    12     6    38 1   
    13     7     8 1   
    14     7     9 1   
    15     7    39 1   
    16     8    40 1   
    17     9    10 1   
    18     9    31 1   
    19     9    41 1   
    20    10    11 2   
    21    10    42 1   
    22    11    12 1   
    23    11    43 1   
    24    12    13 2   
    25    12    44 1   
    26    13    14 1   
    27    13    45 1   
    28    14    15 2   
    29    14    46 1   
    30    15    16 1   
    31    15    47 1   
    32    16    17 1   
    33    16    48 1   
    34    16    49 1   
    35    17    18 2   
    36    17    50 1   
    37    18    19 1   
    38    18    51 1   
    39    19    20 1   
    40    19    52 1   
    41    19    53 1   
    42    20    21 1   
    43    20    54 1   
    44    20    55 1   
    45    21    22 1   
    46    21    56 1   
    47    21    57 1   
    48    22    23 1   
    49    22    58 1   
    50    22    59 1   
    51    23    60 1   
    52    23    61 1   
    53    23    62 1   
    54    24    25 1   
    55    25    26 1   
    56    25    27 1   
    57    27    63 1   
    58    27    64 1   
    59    27    72 1   
    60    28    29 2   
    61    28    30 1   
    62    28    72 1   
    63    30    32 1   
    64    30    66 1   
    65    30    71 1   
    66    31    71 1   
    67    32    69 1   
    68    32    70 1   
    69    65    72 1   
    70    67    71 1   
    71    68    71 1   
@<TRIPOS>SUBSTRUCTURE
     1 LTD         1 TEMP              0 ****  ****    0 ROOT
