@<TRIPOS>MOLECULE
LTE
   60    62     1     0     0
SMALL
No Charge or Current Charge


@<TRIPOS>ATOM
      1 C            8.1660    42.9760     1.8790 c          1 LTE       0.575900
      2 O            7.3470    42.3440     1.2150 o          1 LTE      -0.527100
      3 CA           8.5690    42.6010     3.3430 c3         1 LTE       0.043500
      4 CB           7.8680    43.5570     4.3420 c3         1 LTE      -0.070400
      5 N           10.0470    42.5510     3.6080 n8         1 LTE      -1.002200
      6 CG           8.0250    43.1660     5.8360 c3         1 LTE      -0.086400
      7 CD           7.0540    43.9100     6.7780 c3         1 LTE       0.221800
      8 NE           7.3120    45.3530     6.7830 nu         1 LTE      -0.967400
      9 CZ           6.3580    46.2310     7.0290 c2         1 LTE       0.798100
     10 NH1          6.0410    46.4000     8.2170 n2         1 LTE      -0.897100
     11 NH2          6.5080    47.3040     6.2640 nu         1 LTE      -0.873400
     12 C24          6.4250    47.3160     4.7930 c3         1 LTE       0.200800
     13 C28          5.1770    46.5640     4.2770 c3         1 LTE      -0.116400
     14 C31          4.9790    46.7090     2.7480 c3         1 LTE      -0.095400
     15 C36          3.8160    45.8580     2.1710 c5         1 LTE       0.133300
     16 C38          3.7720    45.2330    -0.1080 c5         1 LTE       0.313300
     17 C39          4.7970    44.3200     0.6330 c5         1 LTE       0.146300
     18 C40          4.1170    44.3180     2.0410 c5         1 LTE       0.099300
     19 C49          5.4370    45.7960    -1.9590 cc         1 LTE       0.405700
     20 C50          4.1030    46.6940    -3.3900 ca         1 LTE      -0.104600
     21 C51          3.3100    46.3530    -2.3240 ca         1 LTE       0.146500
     22 C53          1.4810    47.1860    -3.4160 ca         1 LTE       0.182900
     23 C55          3.4930    47.3120    -4.5010 ca         1 LTE       0.450900
     24 N47          4.1500    45.7840    -1.4100 na         1 LTE      -0.286300
     25 N48          5.4450    46.3570    -3.1840 nd         1 LTE      -0.556100
     26 N52          1.9830    46.5860    -2.3090 nb         1 LTE      -0.211000
     27 N54          2.1740    47.5650    -4.5170 nb         1 LTE      -0.304000
     28 N57          4.1900    47.6920    -5.6040 nv         1 LTE      -1.067900
     29 O37          3.5410    46.3200     0.8210 os         1 LTE      -0.451000
     30 O41          4.9770    43.0130     0.0550 oh         1 LTE      -0.686000
     31 O42          2.9080    43.5330     2.0800 oh         1 LTE      -0.684000
     32 H1           8.6700    43.8750     1.4590 h4         1 LTE       0.007200
     33 HA           8.1710    41.5900     3.5150 h1         1 LTE       0.052700
     34 HB3          8.2360    44.5790     4.1870 hc         1 LTE       0.056200
     35 HB2          6.7980    43.5710     4.1020 hc         1 LTE       0.056200
     36 H2          10.2110    42.2640     4.5810 hn         1 LTE       0.407000
     37 H3          10.4770    41.7900     3.0620 hn         1 LTE       0.407000
     38 HG2          7.8370    42.0910     5.9440 hc         1 LTE       0.048200
     39 HG3          9.0560    43.3410     6.1660 hc         1 LTE       0.048200
     40 HD2          7.1560    43.5100     7.7970 h1         1 LTE       0.041700
     41 HD3          6.0250    43.7130     6.4470 h1         1 LTE       0.041700
     42 HE           7.9030    45.6990     6.0420 hn         1 LTE       0.483000
     43 HH11         6.4140    45.5730     8.6900 hn         1 LTE       0.383400
     44 HH21         6.1540    48.1250     6.7400 hn         1 LTE       0.476000
     45 H30          7.3240    46.8580     4.3590 h1         1 LTE       0.052700
     46 H29          6.3880    48.3560     4.4410 h1         1 LTE       0.052700
     47 H32          4.2850    46.9480     4.7870 hc         1 LTE       0.049700
     48 H33          5.2630    45.5030     4.5380 hc         1 LTE       0.049700
     49 H35          5.9190    46.4600     2.2420 hc         1 LTE       0.052700
     50 H34          4.7900    47.7680     2.5310 hc         1 LTE       0.052700
     51 H61          2.9230    46.0380     2.7850 h1         1 LTE       0.074700
     52 H62          2.8380    44.6750    -0.2640 h2         1 LTE       0.131700
     53 H44          5.7730    44.8220     0.6880 h1         1 LTE       0.029700
     54 H43          4.8160    43.9740     2.8150 h1         1 LTE       0.050700
     55 H58          6.3000    45.3980    -1.4390 h5         1 LTE       0.060800
     56 H56          0.4110    47.3840    -3.4200 h5         1 LTE       0.046100
     57 H59          3.7670    48.3810    -6.2210 hn         1 LTE       0.506000
     58 H60          5.2040    47.7120    -5.5240 hn         1 LTE       0.506000
     59 H46          5.7920    42.6270     0.4770 ho         1 LTE       0.536000
     60 H45          2.6440    43.4370     3.0250 ho         1 LTE       0.505000
@<TRIPOS>BOND
     1     1     2 2   
     2     1     3 1   
     3     1    32 1   
     4     3     4 1   
     5     3     5 1   
     6     3    33 1   
     7     4     6 1   
     8     4    34 1   
     9     4    35 1   
    10     5    36 1   
    11     5    37 1   
    12     6     7 1   
    13     6    38 1   
    14     6    39 1   
    15     7     8 1   
    16     7    40 1   
    17     7    41 1   
    18     8     9 1   
    19     8    42 1   
    20     9    10 2   
    21     9    11 1   
    22    10    43 1   
    23    11    12 1   
    24    11    44 1   
    25    12    13 1   
    26    12    45 1   
    27    12    46 1   
    28    13    14 1   
    29    13    47 1   
    30    13    48 1   
    31    14    15 1   
    32    14    49 1   
    33    14    50 1   
    34    15    18 1   
    35    15    29 1   
    36    15    51 1   
    37    16    17 1   
    38    16    24 1   
    39    16    29 1   
    40    16    52 1   
    41    17    18 1   
    42    17    30 1   
    43    17    53 1   
    44    18    31 1   
    45    18    54 1   
    46    19    24 1   
    47    19    25 2   
    48    19    55 1   
    49    20    21 ar  
    50    20    23 ar  
    51    20    25 1   
    52    21    24 1   
    53    21    26 ar  
    54    22    26 ar  
    55    22    27 ar  
    56    22    56 1   
    57    23    27 ar  
    58    23    28 1   
    59    28    57 1   
    60    28    58 1   
    61    30    59 1   
    62    31    60 1   
@<TRIPOS>SUBSTRUCTURE
     1 LTE         1 TEMP              0 ****  ****    0 ROOT
