@<TRIPOS>MOLECULE
LTE
   60    62     1     0     0
SMALL
bcc


@<TRIPOS>ATOM
      1 C            7.0960    42.5250     1.9200 c          1 LTE       0.575900
      2 O            6.0990    41.8500     1.7930 o          1 LTE      -0.527100
      3 CA           8.1170    42.3500     3.0070 c3         1 LTE       0.043500
      4 CB           7.6220    43.2360     4.1630 c3         1 LTE      -0.070400
      5 N            9.3950    42.8090     2.5030 n8         1 LTE      -0.891800
      6 CG           8.5800    43.2890     5.3490 c3         1 LTE      -0.086400
      7 CD           7.9650    43.9900     6.5530 c3         1 LTE       0.221800
      8 NE           7.5670    45.3330     6.2070 nu         1 LTE      -0.912200
      9 CZ           6.6890    46.0640     6.9550 c2         1 LTE       0.798100
     10 NH1          6.1350    45.7090     8.0560 n2         1 LTE      -0.897100
     11 NH2          6.4000    47.3080     6.4230 nu         1 LTE      -0.818200
     12 C24          6.1780    47.4740     4.9950 c3         1 LTE       0.200800
     13 C28          5.0030    46.6670     4.4510 c3         1 LTE      -0.116400
     14 C31          4.8060    46.8670     2.9540 c3         1 LTE      -0.095400
     15 C36          3.5860    46.1250     2.4240 c5         1 LTE       0.110100
     16 C38          3.4800    45.5930     0.1530 c5         1 LTE       0.260800
     17 C39          4.3250    44.5270     0.8520 c5         1 LTE       0.123100
     18 C40          3.7840    44.6120     2.2790 c5         1 LTE       0.076100
     19 C49          5.2880    46.8960    -1.0180 cc         1 LTE       0.405700
     20 C50          4.6070    46.8640    -3.0150 ca         1 LTE      -0.235200
     21 C51          3.6670    46.1540    -2.2850 ca         1 LTE       0.474800
     22 C53          2.4400    45.7680    -4.0630 ca         1 LTE       0.708900
     23 C55          4.3630    46.9870    -4.3950 ca         1 LTE       0.779200
     24 N47          4.1230    46.1760    -0.9980 na         1 LTE      -0.257000
     25 N48          5.6120    47.3220    -2.2010 nd         1 LTE      -0.556100
     26 N52          2.5630    45.5830    -2.7600 nb         1 LTE      -0.737000
     27 N54          3.2560    46.4190    -4.8880 nb         1 LTE      -0.830000
     28 N57          5.1850    47.6380    -5.2190 nv         1 LTE      -0.957500
     29 O37          3.2470    46.5860     1.1090 os         1 LTE      -0.404600
     30 O41          4.1940    43.3120     0.1950 oh         1 LTE      -0.563800
     31 O42          2.5760    43.9010     2.3210 oh         1 LTE      -0.561800
     32 H1           7.2980    43.3820     1.2510 h4         1 LTE       0.007200
     33 HA           8.1040    41.3040     3.3430 h1         1 LTE       0.052700
     34 HB3          7.4390    44.2490     3.7930 hc         1 LTE       0.056200
     35 HB2          6.6580    42.8450     4.5010 hc         1 LTE       0.056200
     36 H2          10.0820    42.8180     3.2440 hn         1 LTE       0.351800
     37 H3           9.7480    42.1580     1.8120 hn         1 LTE       0.351800
     38 HG2          8.8610    42.2780     5.6530 hc         1 LTE       0.048200
     39 HG3          9.5070    43.8010     5.0740 hc         1 LTE       0.048200
     40 HD2          8.6740    43.9700     7.3880 h1         1 LTE       0.041700
     41 HD3          7.0780    43.4360     6.8720 h1         1 LTE       0.041700
     42 HE           8.2190    45.8520     5.6380 hn         1 LTE       0.427800
     43 HH11         6.5350    44.8520     8.4170 hn         1 LTE       0.383400
     44 HH21         5.7030    47.7740     6.9850 hn         1 LTE       0.420800
     45 H30          7.0870    47.2240     4.4450 h1         1 LTE       0.052700
     46 H29          6.0110    48.5380     4.8200 h1         1 LTE       0.052700
     47 H32          4.0900    46.9570     4.9820 hc         1 LTE       0.049700
     48 H33          5.1700    45.6080     4.6720 hc         1 LTE       0.049700
     49 H35          5.7100    46.5570     2.4180 hc         1 LTE       0.052700
     50 H34          4.6750    47.9330     2.7420 hc         1 LTE       0.052700
     51 H61          2.7360    46.3370     3.0830 h1         1 LTE       0.074700
     52 H62          2.5450    45.1540    -0.2110 h2         1 LTE       0.131700
     53 H44          5.3720    44.8680     0.8720 h1         1 LTE       0.029700
     54 H43          4.5010    44.2300     3.0180 h1         1 LTE       0.050700
     55 H58          5.8560    47.0840    -0.1190 h5         1 LTE       0.060800
     56 H56          1.5600    45.3330    -4.5260 h5         1 LTE       0.046100
     57 H59          4.9610    47.7250    -6.1950 hn         1 LTE       0.450800
     58 H60          6.0100    48.0970    -4.8760 hn         1 LTE       0.450800
     59 H46          4.7790    42.6670     0.6230 ho         1 LTE       0.437000
     60 H45          2.1980    43.9980     3.2010 ho         1 LTE       0.406000
@<TRIPOS>BOND
     1     1     2 2   
     2     1     3 1   
     3     1    32 1   
     4     3     4 1   
     5     3     5 1   
     6     3    33 1   
     7     4     6 1   
     8     4    34 1   
     9     4    35 1   
    10     5    36 1   
    11     5    37 1   
    12     6     7 1   
    13     6    38 1   
    14     6    39 1   
    15     7     8 1   
    16     7    40 1   
    17     7    41 1   
    18     8     9 1   
    19     8    42 1   
    20     9    10 2   
    21     9    11 1   
    22    10    43 1   
    23    11    12 1   
    24    11    44 1   
    25    12    13 1   
    26    12    45 1   
    27    12    46 1   
    28    13    14 1   
    29    13    47 1   
    30    13    48 1   
    31    14    15 1   
    32    14    49 1   
    33    14    50 1   
    34    15    18 1   
    35    15    29 1   
    36    15    51 1   
    37    16    17 1   
    38    16    24 1   
    39    16    29 1   
    40    16    52 1   
    41    17    18 1   
    42    17    30 1   
    43    17    53 1   
    44    18    31 1   
    45    18    54 1   
    46    19    24 1   
    47    19    25 2   
    48    19    55 1   
    49    20    21 ar  
    50    20    23 ar  
    51    20    25 1   
    52    21    24 1   
    53    21    26 ar  
    54    22    26 ar  
    55    22    27 ar  
    56    22    56 1   
    57    23    27 ar  
    58    23    28 1   
    59    28    57 1   
    60    28    58 1   
    61    30    59 1   
    62    31    60 1   
@<TRIPOS>SUBSTRUCTURE
     1 LTE         1 TEMP              0 ****  ****    0 ROOT
