@<TRIPOS>MOLECULE
LTF
   42    43     1     0     0
SMALL
abcg2


@<TRIPOS>ATOM
      1 CAO         -5.0990     3.4000     0.3620 c3         1 LTF      -0.089100
      2 CAN         -4.0420     2.3440     0.6440 c3         1 LTF      -0.073400
      3 CAK         -3.4300     1.7780    -0.6390 c3         1 LTF      -0.025100
      4 CAJ         -2.3780     0.7450    -0.3510 ca         1 LTF      -0.071300
      5 CAI         -1.0530     1.1380    -0.1650 ca         1 LTF      -0.093000
      6 CAM         -2.7080    -0.5950    -0.1880 ca         1 LTF       0.093100
      7 OAV         -3.9970    -1.0040    -0.3130 os         1 LTF      -0.349100
      8 CAP         -4.3380    -1.5200    -1.5950 c3         1 LTF       0.150900
      9 CAL         -1.7220    -1.5440     0.1440 ca         1 LTF       0.112100
     10 OAU         -2.1530    -2.8090     0.2750 os         1 LTF      -0.329100
     11 CAQ         -1.2160    -3.8040     0.6400 c3         1 LTF       0.143900
     12 CAH         -0.4120    -1.1370     0.3240 ca         1 LTF      -0.147000
     13 CAG         -0.0780     0.2100     0.1690 ca         1 LTF      -0.103900
     14 CAF          1.3140     0.6160     0.3800 ce         1 LTF       0.669200
     15 N            2.2350    -0.1330     0.8300 n2         1 LTF      -0.646900
     16 OAR          1.6200     1.8870     0.0910 os         1 LTF      -0.437600
     17 CB           2.9900     2.0770     0.4630 c5         1 LTF       0.130600
     18 CA           3.4560     0.6570     0.8370 c5         1 LTF       0.003500
     19 C            4.3960     0.0700    -0.2100 c          1 LTF       0.609100
     20 O            4.1100     0.0510    -1.3920 o          1 LTF      -0.555100
     21 NAB          5.5440    -0.3920     0.3030 ns         1 LTF      -0.384400
     22 OAS          6.4180    -1.0790    -0.4800 oh         1 LTF      -0.416100
     23 H1          -5.9210     2.9890    -0.2270 hc         1 LTF       0.032033
     24 H2          -5.5190     3.7970     1.2860 hc         1 LTF       0.032033
     25 H3          -4.6810     4.2380    -0.1990 hc         1 LTF       0.032033
     26 H4          -3.2470     2.7710     1.2620 hc         1 LTF       0.045700
     27 H5          -4.4790     1.5280     1.2250 hc         1 LTF       0.045700
     28 H6          -4.2250     1.3690    -1.2650 hc         1 LTF       0.048700
     29 H7          -2.9800     2.5950    -1.2100 hc         1 LTF       0.048700
     30 H8          -0.8010     2.1840    -0.2860 ha         1 LTF       0.132000
     31 H9          -5.3880    -1.8010    -1.5560 h1         1 LTF       0.036700
     32 H10         -4.2040    -0.7670    -2.3770 h1         1 LTF       0.036700
     33 H11         -3.7480    -2.4010    -1.8530 h1         1 LTF       0.036700
     34 H12         -0.7650    -3.6000     1.6150 h1         1 LTF       0.044033
     35 H13         -1.7680    -4.7390     0.6970 h1         1 LTF       0.044033
     36 H14         -0.4210    -3.9090    -0.1020 h1         1 LTF       0.044033
     37 H15          0.3660    -1.8420     0.5820 ha         1 LTF       0.144000
     38 H19          3.5260     2.5200    -0.3750 h1         1 LTF       0.072200
     39 H20          3.0340     2.7580     1.3130 h1         1 LTF       0.072200
     40 H21          3.9150     0.6360     1.8280 h1         1 LTF       0.080700
     41 H22          5.7060    -0.4690     1.2970 hn         1 LTF       0.339500
     42 H23          7.0850    -0.4410    -0.7650 ho         1 LTF       0.442000
@<TRIPOS>BOND
     1     1     2 1   
     2     1    23 1   
     3     1    24 1   
     4     1    25 1   
     5     2     3 1   
     6     2    26 1   
     7     2    27 1   
     8     3     4 1   
     9     3    28 1   
    10     3    29 1   
    11     4     5 ar  
    12     4     6 ar  
    13     5    13 ar  
    14     5    30 1   
    15     6     7 1   
    16     6     9 ar  
    17     7     8 1   
    18     8    31 1   
    19     8    32 1   
    20     8    33 1   
    21     9    10 1   
    22     9    12 ar  
    23    10    11 1   
    24    11    34 1   
    25    11    35 1   
    26    11    36 1   
    27    12    13 ar  
    28    12    37 1   
    29    13    14 1   
    30    14    15 2   
    31    14    16 1   
    32    15    18 1   
    33    16    17 1   
    34    17    18 1   
    35    17    38 1   
    36    17    39 1   
    37    18    19 1   
    38    18    40 1   
    39    19    20 2   
    40    19    21 1   
    41    21    22 1   
    42    21    41 1   
    43    22    42 1   
@<TRIPOS>SUBSTRUCTURE
     1 LTF         1 TEMP              0 ****  ****    0 ROOT
