@<TRIPOS>MOLECULE
LTF
   42    43     1     0     0
SMALL
No Charge or Current Charge


@<TRIPOS>ATOM
      1 CAO         -5.0650     3.6060     0.0950 c3         1 LTF      -0.089100
      2 CAN         -4.0960     2.4500     0.4120 c3         1 LTF      -0.073400
      3 CAK         -3.2720     1.9950    -0.8120 c3         1 LTF      -0.025100
      4 CAJ         -2.3110     0.8540    -0.4700 ca         1 LTF      -0.071300
      5 CAI         -0.9790     1.1740    -0.1510 ca         1 LTF      -0.093000
      6 CAM         -2.7440    -0.4940    -0.4600 ca         1 LTF       0.093100
      7 OAV         -4.0840    -0.7140    -0.7790 os         1 LTF      -0.349100
      8 CAP         -4.7310    -1.9980    -0.8030 c3         1 LTF       0.150900
      9 CAL         -1.8090    -1.5250    -0.1290 ca         1 LTF       0.112100
     10 OAU         -2.1980    -2.8560    -0.1130 os         1 LTF      -0.329100
     11 CAQ         -1.3060    -3.9390     0.2110 c3         1 LTF       0.143900
     12 CAH         -0.4740    -1.1730     0.1840 ca         1 LTF      -0.147000
     13 CAG         -0.0460     0.1720     0.1780 ca         1 LTF      -0.103900
     14 CAF          1.3730     0.5350     0.5140 ce         1 LTF       0.669200
     15 N            2.2940    -0.3280     0.8220 n2         1 LTF      -0.646900
     16 OAR          1.7500     1.8620     0.4820 os         1 LTF      -0.437600
     17 CB           3.0380     1.9030     1.1200 c5         1 LTF       0.130600
     18 CA           3.5620     0.4610     0.9350 c5         1 LTF       0.003500
     19 C            4.4510     0.4040    -0.3570 c          1 LTF       0.609100
     20 O            4.1190     0.7120    -1.4980 o          1 LTF      -0.555100
     21 NAB          5.7280    -0.0450    -0.0280 ns         1 LTF      -0.384400
     22 OAS          6.6720    -0.4200    -1.0600 oh         1 LTF      -0.416100
     23 H1          -5.7850     3.3070    -0.6770 hc         1 LTF       0.032033
     24 H2          -5.6250     3.8920     0.9930 hc         1 LTF       0.032033
     25 H3          -4.5170     4.4850    -0.2630 hc         1 LTF       0.032033
     26 H4          -3.4120     2.7650     1.2100 hc         1 LTF       0.045700
     27 H5          -4.6690     1.6000     0.8010 hc         1 LTF       0.045700
     28 H6          -3.9520     1.6970    -1.6190 hc         1 LTF       0.048700
     29 H7          -2.7130     2.8540    -1.2020 hc         1 LTF       0.048700
     30 H8          -0.6690     2.2170    -0.1590 ha         1 LTF       0.132000
     31 H9          -5.7870    -1.8810    -1.0740 h1         1 LTF       0.036700
     32 H10         -4.2670    -2.6580    -1.5460 h1         1 LTF       0.036700
     33 H11         -4.6900    -2.4760     0.1840 h1         1 LTF       0.036700
     34 H12         -0.9100    -3.8280     1.2280 h1         1 LTF       0.044033
     35 H13         -1.8380    -4.8970     0.1570 h1         1 LTF       0.044033
     36 H14         -0.4660    -3.9780    -0.4950 h1         1 LTF       0.044033
     37 H15          0.2530    -1.9390     0.4380 ha         1 LTF       0.144000
     38 H19          3.6730     2.6750     0.6650 h1         1 LTF       0.072200
     39 H20          2.8960     2.1390     2.1830 h1         1 LTF       0.072200
     40 H21          4.1490     0.1410     1.8070 h1         1 LTF       0.080700
     41 H22          5.8970    -0.4360     0.8980 hn         1 LTF       0.339500
     42 H23          7.4980     0.0550    -0.8050 ho         1 LTF       0.442000
@<TRIPOS>BOND
     1     1     2 1   
     2     1    23 1   
     3     1    24 1   
     4     1    25 1   
     5     2     3 1   
     6     2    26 1   
     7     2    27 1   
     8     3     4 1   
     9     3    28 1   
    10     3    29 1   
    11     4     5 ar  
    12     4     6 ar  
    13     5    13 ar  
    14     5    30 1   
    15     6     7 1   
    16     6     9 ar  
    17     7     8 1   
    18     8    31 1   
    19     8    32 1   
    20     8    33 1   
    21     9    10 1   
    22     9    12 ar  
    23    10    11 1   
    24    11    34 1   
    25    11    35 1   
    26    11    36 1   
    27    12    13 ar  
    28    12    37 1   
    29    13    14 1   
    30    14    15 2   
    31    14    16 1   
    32    15    18 1   
    33    16    17 1   
    34    17    18 1   
    35    17    38 1   
    36    17    39 1   
    37    18    19 1   
    38    18    40 1   
    39    19    20 2   
    40    19    21 1   
    41    21    22 1   
    42    21    41 1   
    43    22    42 1   
@<TRIPOS>SUBSTRUCTURE
     1 LTF         1 TEMP              0 ****  ****    0 ROOT
