@<TRIPOS>MOLECULE
LTG
   24    23     1     0     0
SMALL
bcc


@<TRIPOS>ATOM
      1 C5          -1.8560    -0.1220     0.0960 c3         1 LTG       0.114100
      2 C4          -0.4630     0.1610    -0.4540 c3         1 LTG       0.120100
      3 O4          -0.1640     1.5370    -0.4570 oh         1 LTG      -0.592800
      4 C3           0.6280    -0.6190     0.3070 c3         1 LTG       0.021100
      5 O3           0.4460    -2.0060     0.2160 oh         1 LTG      -0.573800
      6 C2           1.9900    -0.2200    -0.2550 c          1 LTG       0.549100
      7 O5          -1.9050     0.4090     1.4030 oh         1 LTG      -0.615800
      8 C1           2.8170     0.7030     0.5870 c3         1 LTG       0.044400
      9 O1           3.9830     1.0590    -0.0860 oh         1 LTG      -0.564800
     10 C6          -2.9330     0.4900    -0.7860 c3         1 LTG       0.097400
     11 O6          -4.1800     0.2200    -0.1780 oh         1 LTG      -0.610800
     12 H1          -2.0040    -1.2110     0.1080 h1         1 LTG       0.069700
     13 H2          -0.4350    -0.1650    -1.5000 h1         1 LTG       0.081700
     14 H3          -0.4180     1.9000     0.4010 ho         1 LTG       0.419000
     15 H4           0.5810    -0.3660     1.3710 h1         1 LTG       0.097700
     16 H5           0.5690    -2.2740    -0.7030 ho         1 LTG       0.417000
     17 H6          -2.8310     0.4750     1.6610 ho         1 LTG       0.431000
     18 H7           2.1890     1.5640     0.8590 h1         1 LTG       0.040700
     19 H8           3.0070     0.1710     1.5330 h1         1 LTG       0.040700
     20 H9           4.4770     1.6650     0.4740 ho         1 LTG       0.408000
     21 H10         -2.7660     1.5680    -0.8860 h1         1 LTG       0.040700
     22 H11         -2.8680     0.0510    -1.7900 h1         1 LTG       0.040700
     23 H12         -4.8210     0.8620    -0.4930 ho         1 LTG       0.414000
     24 O2           2.3650    -0.6620    -1.3140 o          1 LTG      -0.490100
@<TRIPOS>BOND
     1     1     2 1   
     2     1     7 1   
     3     1    10 1   
     4     1    12 1   
     5     2     3 1   
     6     2     4 1   
     7     2    13 1   
     8     3    14 1   
     9     4     5 1   
    10     4     6 1   
    11     4    15 1   
    12     5    16 1   
    13     6     8 1   
    14     6    24 2   
    15     7    17 1   
    16     8     9 1   
    17     8    18 1   
    18     8    19 1   
    19     9    20 1   
    20    10    11 1   
    21    10    21 1   
    22    10    22 1   
    23    11    23 1   
@<TRIPOS>SUBSTRUCTURE
     1 LTG         1 TEMP              0 ****  ****    0 ROOT
