@<TRIPOS>MOLECULE
LTG
   24    23     1     0     0
SMALL
No Charge or Current Charge


@<TRIPOS>ATOM
      1 C5          -1.8450    -0.0870     0.1680 c3         1 LTG       0.137300
      2 C4          -0.4560     0.2040    -0.4780 c3         1 LTG       0.143300
      3 O4          -0.1670     1.5840    -0.2190 oh         1 LTG      -0.715000
      4 C3           0.6860    -0.6950     0.0850 c3         1 LTG       0.044300
      5 O3           0.4250    -2.0960    -0.2320 oh         1 LTG      -0.696000
      6 C2           2.0830    -0.2330    -0.4340 c          1 LTG       0.549100
      7 O5          -1.9010     0.5100     1.4790 oh         1 LTG      -0.738000
      8 C1           2.8030     0.8830     0.3820 c3         1 LTG       0.067600
      9 O1           4.1820     0.5670     0.7000 oh         1 LTG      -0.627000
     10 C6          -3.0390     0.4800    -0.6440 c3         1 LTG       0.120600
     11 O6          -4.2450     0.3640     0.1410 oh         1 LTG      -0.733000
     12 H1          -1.9840    -1.1750     0.2370 h1         1 LTG       0.069700
     13 H2          -0.5260     0.0250    -1.5610 h1         1 LTG       0.081700
     14 H3          -0.6910     1.7590     0.6050 ho         1 LTG       0.518000
     15 H4           0.7030    -0.5660     1.1760 h1         1 LTG       0.097700
     16 H5           1.0420    -2.3520    -0.9630 ho         1 LTG       0.516000
     17 H6          -2.8780     0.5830     1.6420 ho         1 LTG       0.530000
     18 H7           2.7440     1.8070    -0.2080 h1         1 LTG       0.040700
     19 H8           2.2350     1.0520     1.3060 h1         1 LTG       0.040700
     20 H9           4.5590     1.3380     1.1830 ho         1 LTG       0.447000
     21 H10         -2.8480     1.5310    -0.9010 h1         1 LTG       0.040700
     22 H11         -3.1310    -0.0820    -1.5840 h1         1 LTG       0.040700
     23 H12         -4.9970     0.6460    -0.4350 ho         1 LTG       0.513000
     24 O2           2.6530    -0.8550    -1.3300 o          1 LTG      -0.490100
@<TRIPOS>BOND
     1     1     2 1   
     2     1     7 1   
     3     1    10 1   
     4     1    12 1   
     5     2     3 1   
     6     2     4 1   
     7     2    13 1   
     8     3    14 1   
     9     4     5 1   
    10     4     6 1   
    11     4    15 1   
    12     5    16 1   
    13     6     8 1   
    14     6    24 2   
    15     7    17 1   
    16     8     9 1   
    17     8    18 1   
    18     8    19 1   
    19     9    20 1   
    20    10    11 1   
    21    10    21 1   
    22    10    22 1   
    23    11    23 1   
@<TRIPOS>SUBSTRUCTURE
     1 LTG         1 TEMP              0 ****  ****    0 ROOT
