@<TRIPOS>MOLECULE
LTH
   16    15     1     0     0
SMALL
abcg2


@<TRIPOS>ATOM
      1 O1           1.8850     1.3360     0.5680 o          1 LTH      -0.714000
      2 C1           1.6860     0.1920     0.1360 c          1 LTH       0.703000
      3 O            2.4560    -0.5110    -0.5590 o          1 LTH      -0.714000
      4 C2           0.3440    -0.4890     0.4880 c3         1 LTH      -0.021700
      5 O2           0.3190    -1.7740    -0.0880 oh         1 LTH      -0.785000
      6 C3          -0.8370     0.3400    -0.0140 c3         1 LTH       0.171300
      7 O3          -0.7960     0.4730    -1.4180 oh         1 LTH      -0.649000
      8 C4          -2.1590    -0.2350     0.4670 c3         1 LTH       0.122600
      9 O4          -3.2030     0.6260     0.0730 oh         1 LTH      -0.716000
     10 H2           0.2750    -0.5570     1.5840 h1         1 LTH       0.032700
     11 H3           1.1890    -1.8040    -0.5350 ho         1 LTH       0.540000
     12 H4          -0.7310     1.3490     0.3970 h1         1 LTH       0.089700
     13 H5          -0.6750    -0.4110    -1.7820 ho         1 LTH       0.436000
     14 H6          -2.2950    -1.2460     0.0590 h1         1 LTH       0.014700
     15 H7          -2.1120    -0.3370     1.5600 h1         1 LTH       0.014700
     16 H8          -4.0350     0.2230     0.3360 ho         1 LTH       0.474000
@<TRIPOS>BOND
     1     1     2 1   
     2     2     3 1   
     3     2     4 1   
     4     4     5 1   
     5     4     6 1   
     6     4    10 1   
     7     5    11 1   
     8     6     7 1   
     9     6     8 1   
    10     6    12 1   
    11     7    13 1   
    12     8     9 1   
    13     8    14 1   
    14     8    15 1   
    15     9    16 1   
@<TRIPOS>SUBSTRUCTURE
     1 LTH         1 TEMP              0 ****  ****    0 ROOT
