@<TRIPOS>MOLECULE
LTH
   16    15     1     0     0
SMALL
No Charge or Current Charge


@<TRIPOS>ATOM
      1 O1           1.8390     1.3410     0.7800 o          1 LTH      -0.714000
      2 C1           1.7130     0.2590     0.2230 c          1 LTH       0.703000
      3 O            2.6160    -0.2970    -0.3930 o          1 LTH      -0.714000
      4 C2           0.3560    -0.5180     0.3630 c3         1 LTH      -0.021700
      5 O2           0.3690    -1.8030    -0.3430 oh         1 LTH      -0.785000
      6 C3          -0.8520     0.3420    -0.1030 c3         1 LTH       0.171300
      7 O3          -0.8860     0.2920    -1.5390 oh         1 LTH      -0.649000
      8 C4          -2.2020    -0.1600     0.5000 c3         1 LTH       0.122600
      9 O4          -3.2970     0.7130     0.1630 oh         1 LTH      -0.716000
     10 H2           0.2390    -0.7000     1.4400 h1         1 LTH       0.032700
     11 H3           1.3230    -1.9490    -0.5840 ho         1 LTH       0.540000
     12 H4          -0.7060     1.3750     0.2440 h1         1 LTH       0.089700
     13 H5          -0.5800    -0.6250    -1.7300 ho         1 LTH       0.436000
     14 H6          -2.4050    -1.1780     0.1380 h1         1 LTH       0.014700
     15 H7          -2.0990    -0.2170     1.5920 h1         1 LTH       0.014700
     16 H8          -4.1160     0.2990     0.5220 ho         1 LTH       0.474000
@<TRIPOS>BOND
     1     1     2 1   
     2     2     3 1   
     3     2     4 1   
     4     4     5 1   
     5     4     6 1   
     6     4    10 1   
     7     5    11 1   
     8     6     7 1   
     9     6     8 1   
    10     6    12 1   
    11     7    13 1   
    12     8     9 1   
    13     8    14 1   
    14     8    15 1   
    15     9    16 1   
@<TRIPOS>SUBSTRUCTURE
     1 LTH         1 TEMP              0 ****  ****    0 ROOT
