@<TRIPOS>MOLECULE
LTJ
   52    54     1     0     0
SMALL
No Charge or Current Charge


@<TRIPOS>ATOM
      1 C13         -2.5750    -0.0980    -0.6810 c6         1 LTJ       0.106700
      2 C18         -5.8830     0.2150     1.1990 ce         1 LTJ      -0.313200
      3 C17          0.5550    -2.6270    -0.4160 c3         1 LTJ      -0.009900
      4 C16          3.2170    -3.8970     0.8980 c3         1 LTJ      -0.040900
      5 C15         -4.8420    -0.4610     0.3800 c          1 LTJ       0.606300
      6 C19         -7.0300    -0.3780     1.6080 c2         1 LTJ      -0.130200
      7 C20         -8.0990     0.2860     2.4460 c3         1 LTJ      -0.072900
      8 C11         -1.6130    -0.2770    -3.0290 c6         1 LTJ      -0.076400
      9 C12         -2.8560     0.1060    -2.1910 c6         1 LTJ      -0.094400
     10 C1           1.1740     0.5980    -0.6000 ca         1 LTJ       0.300000
     11 N1          -0.1220     0.3340    -1.1140 nh         1 LTJ      -0.798400
     12 C2           1.7110     1.9140    -0.5510 ca         1 LTJ       0.083000
     13 C3           3.0040     2.1590    -0.0340 ca         1 LTJ      -0.098000
     14 C4           3.8100     1.0980     0.4560 ca         1 LTJ      -0.155600
     15 C5           3.2490    -0.1940     0.3960 ca         1 LTJ      -0.009200
     16 C6           1.9950    -0.4370    -0.1060 ca         1 LTJ      -0.078800
     17 C7           5.2000     1.3310     1.0170 c          1 LTJ       0.630700
     18 O1           5.9080     0.4320     1.4440 o          1 LTJ      -0.639100
     19 N2           5.6740     2.5940     1.0440 nt         1 LTJ      -0.596000
     20 F1           0.9900     2.9710    -0.9990 f          1 LTJ      -0.189000
     21 N3           3.8090    -1.3920     0.8010 na         1 LTJ      -0.202700
     22 C8           2.9240    -2.4580     0.5720 cc         1 LTJ      -0.055300
     23 C9           1.7940    -1.8750     0.0080 cd         1 LTJ      -0.114400
     24 C10         -0.3590     0.5080    -2.5710 c6         1 LTJ       0.196800
     25 C14         -1.2990     0.6990    -0.2760 c6         1 LTJ       0.188800
     26 N4          -3.7400     0.3140     0.1200 ns         1 LTJ      -0.504900
     27 O2          -4.9490    -1.6110    -0.0210 o          1 LTJ      -0.610100
     28 H1          -2.3830    -1.1660    -0.4970 h1         1 LTJ       0.090700
     29 H2          -5.6760     1.2470     1.4780 ha         1 LTJ       0.173000
     30 H3           0.3450    -2.4680    -1.4790 hc         1 LTJ       0.040367
     31 H4           0.6590    -3.7070    -0.2600 hc         1 LTJ       0.040367
     32 H5          -0.3180    -2.2950     0.1570 hc         1 LTJ       0.040367
     33 H6           4.2090    -4.0100     1.3520 hc         1 LTJ       0.051367
     34 H7           2.4780    -4.2950     1.6030 hc         1 LTJ       0.051367
     35 H8           3.1890    -4.5140    -0.0070 hc         1 LTJ       0.051367
     36 H9          -7.2480    -1.4150     1.3380 ha         1 LTJ       0.193000
     37 H10         -8.5080     1.1680     1.9370 hc         1 LTJ       0.047700
     38 H11         -8.9310    -0.4010     2.6440 hc         1 LTJ       0.047700
     39 H12         -7.6970     0.6120     3.4120 hc         1 LTJ       0.047700
     40 H13         -1.4230    -1.3550    -2.9380 hc         1 LTJ       0.051200
     41 H14         -1.8020    -0.0830    -4.0940 hc         1 LTJ       0.051200
     42 H15         -3.7160    -0.5030    -2.5020 hc         1 LTJ       0.047200
     43 H16         -3.1240     1.1540    -2.3850 hc         1 LTJ       0.047200
     44 H17          3.3610     3.1850    -0.0210 ha         1 LTJ       0.122000
     45 H18          5.1120     3.3560     0.6990 hn         1 LTJ       0.316500
     46 H19          6.5960     2.7630     1.4150 hn         1 LTJ       0.316500
     47 H20          4.7370    -1.4710     1.2080 hn         1 LTJ       0.380000
     48 H21          0.5110     0.1530    -3.1420 h1         1 LTJ       0.041200
     49 H22         -0.4960     1.5750    -2.8060 h1         1 LTJ       0.041200
     50 H23         -1.5000     1.7770    -0.3670 h1         1 LTJ       0.039700
     51 H24         -1.0800     0.4940     0.7820 h1         1 LTJ       0.039700
     52 H25         -3.7520     1.2520     0.5000 hn         1 LTJ       0.308500
@<TRIPOS>BOND
     1     1     9 1   
     2     1    25 1   
     3     1    26 1   
     4     1    28 1   
     5     2     5 1   
     6     2     6 2   
     7     2    29 1   
     8     3    23 1   
     9     3    30 1   
    10     3    31 1   
    11     3    32 1   
    12     4    22 1   
    13     4    33 1   
    14     4    34 1   
    15     4    35 1   
    16     5    26 1   
    17     5    27 2   
    18     6     7 1   
    19     6    36 1   
    20     7    37 1   
    21     7    38 1   
    22     7    39 1   
    23     8     9 1   
    24     8    24 1   
    25     8    40 1   
    26     8    41 1   
    27     9    42 1   
    28     9    43 1   
    29    10    11 1   
    30    10    12 ar  
    31    10    16 ar  
    32    11    24 1   
    33    11    25 1   
    34    12    13 ar  
    35    12    20 1   
    36    13    14 ar  
    37    13    44 1   
    38    14    15 ar  
    39    14    17 1   
    40    15    16 ar  
    41    15    21 1   
    42    16    23 1   
    43    17    18 2   
    44    17    19 1   
    45    19    45 1   
    46    19    46 1   
    47    21    22 1   
    48    21    47 1   
    49    22    23 2   
    50    24    48 1   
    51    24    49 1   
    52    25    50 1   
    53    25    51 1   
    54    26    52 1   
@<TRIPOS>SUBSTRUCTURE
     1 LTJ         1 TEMP              0 ****  ****    0 ROOT
