@<TRIPOS>MOLECULE
LTJ
   52    54     1     0     0
SMALL
bcc


@<TRIPOS>ATOM
      1 C13         -2.5120    -0.0500    -0.7960 c6         1 LTJ       0.106700
      2 C18         -5.6330     0.1670     1.2860 ce         1 LTJ      -0.263200
      3 C17          0.3730    -2.6270    -0.3610 c3         1 LTJ      -0.009900
      4 C16          2.9960    -3.7860     1.1220 c3         1 LTJ      -0.040900
      5 C15         -4.6140    -0.4730     0.4200 c          1 LTJ       0.673300
      6 C19         -6.7400    -0.4710     1.6580 c2         1 LTJ      -0.080200
      7 C20         -7.8090     0.1080     2.5150 c3         1 LTJ      -0.072900
      8 C11         -1.6230    -0.0520    -3.1390 c6         1 LTJ      -0.076400
      9 C12         -2.8240     0.2650    -2.2570 c6         1 LTJ      -0.094400
     10 C1           1.1430     0.5610    -0.7320 ca         1 LTJ       0.161600
     11 N1          -0.1430     0.3170    -1.2540 nh         1 LTJ      -0.660000
     12 C2           1.7530     1.8080    -0.7370 ca         1 LTJ       0.047900
     13 C3           3.0140     2.0580    -0.2180 ca         1 LTJ      -0.116000
     14 C4           3.7500     1.0400     0.3760 ca         1 LTJ      -0.155600
     15 C5           3.1620    -0.2310     0.3910 ca         1 LTJ      -0.009200
     16 C6           1.8750    -0.4830    -0.1460 ca         1 LTJ      -0.078800
     17 C7           5.1010     1.2410     0.9650 c          1 LTJ       0.697700
     18 O1           5.8030     0.2790     1.2650 o          1 LTJ      -0.639100
     19 N2           5.5120     2.5040     1.1470 nt         1 LTJ      -0.663000
     20 F1           1.0890     2.8550    -1.2690 f          1 LTJ      -0.153900
     21 N3           3.6250    -1.4100     0.8800 na         1 LTJ      -0.152400
     22 C8           2.6980    -2.3990     0.6790 cc         1 LTJ      -0.055300
     23 C9           1.5980    -1.8770     0.0470 cd         1 LTJ      -0.114400
     24 C10         -0.3890     0.6820    -2.6400 c6         1 LTJ       0.196800
     25 C14         -1.2300     0.6500    -0.3530 c6         1 LTJ       0.188800
     26 N4          -3.5890     0.3350     0.0880 ns         1 LTJ      -0.571900
     27 O2          -4.6930    -1.6370     0.0440 o          1 LTJ      -0.610100
     28 H1          -2.3610    -1.1270    -0.6920 h1         1 LTJ       0.090700
     29 H2          -5.4560     1.1880     1.6120 ha         1 LTJ       0.123000
     30 H3           0.1910    -2.5540    -1.4330 hc         1 LTJ       0.040367
     31 H4           0.4620    -3.6850    -0.1160 hc         1 LTJ       0.040367
     32 H5          -0.5220    -2.2540     0.1370 hc         1 LTJ       0.040367
     33 H6           3.2630    -3.8140     2.1800 hc         1 LTJ       0.051367
     34 H7           2.1400    -4.4410     0.9800 hc         1 LTJ       0.051367
     35 H8           3.8350    -4.2080     0.5640 hc         1 LTJ       0.051367
     36 H9          -6.8940    -1.4900     1.3150 ha         1 LTJ       0.143000
     37 H10         -8.7590     0.1320     1.9780 hc         1 LTJ       0.047700
     38 H11         -7.9710    -0.5120     3.3990 hc         1 LTJ       0.047700
     39 H12         -7.5730     1.1200     2.8420 hc         1 LTJ       0.047700
     40 H13         -1.4310    -1.1290    -3.1350 hc         1 LTJ       0.051200
     41 H14         -1.8250     0.2360    -4.1730 hc         1 LTJ       0.051200
     42 H15         -3.7030    -0.2990    -2.5770 hc         1 LTJ       0.047200
     43 H16         -3.0750     1.3280    -2.3470 hc         1 LTJ       0.047200
     44 H17          3.3960     3.0680    -0.2980 ha         1 LTJ       0.140000
     45 H18          4.9120     3.3010     1.0280 hn         1 LTJ       0.316500
     46 H19          6.4080     2.6720     1.5740 hn         1 LTJ       0.316500
     47 H20          4.5330    -1.5280     1.2960 hn         1 LTJ       0.329700
     48 H21          0.4840     0.4030    -3.2320 h1         1 LTJ       0.041200
     49 H22         -0.5450     1.7620    -2.7730 h1         1 LTJ       0.041200
     50 H23         -1.4070     1.7390    -0.3070 h1         1 LTJ       0.039700
     51 H24         -0.9700     0.3230     0.6550 h1         1 LTJ       0.039700
     52 H25         -3.6330     1.3020     0.3710 hn         1 LTJ       0.308500
@<TRIPOS>BOND
     1     1     9 1   
     2     1    25 1   
     3     1    26 1   
     4     1    28 1   
     5     2     5 1   
     6     2     6 2   
     7     2    29 1   
     8     3    23 1   
     9     3    30 1   
    10     3    31 1   
    11     3    32 1   
    12     4    22 1   
    13     4    33 1   
    14     4    34 1   
    15     4    35 1   
    16     5    26 1   
    17     5    27 2   
    18     6     7 1   
    19     6    36 1   
    20     7    37 1   
    21     7    38 1   
    22     7    39 1   
    23     8     9 1   
    24     8    24 1   
    25     8    40 1   
    26     8    41 1   
    27     9    42 1   
    28     9    43 1   
    29    10    11 1   
    30    10    12 ar  
    31    10    16 ar  
    32    11    24 1   
    33    11    25 1   
    34    12    13 ar  
    35    12    20 1   
    36    13    14 ar  
    37    13    44 1   
    38    14    15 ar  
    39    14    17 1   
    40    15    16 ar  
    41    15    21 1   
    42    16    23 1   
    43    17    18 2   
    44    17    19 1   
    45    19    45 1   
    46    19    46 1   
    47    21    22 1   
    48    21    47 1   
    49    22    23 2   
    50    24    48 1   
    51    24    49 1   
    52    25    50 1   
    53    25    51 1   
    54    26    52 1   
@<TRIPOS>SUBSTRUCTURE
     1 LTJ         1 TEMP              0 ****  ****    0 ROOT
