@<TRIPOS>MOLECULE
LTK
   38    40     1     0     0
SMALL
No Charge or Current Charge


@<TRIPOS>ATOM
      1 C13        -30.3370     7.9770   -11.2040 ca         1 LTK      -0.103000
      2 C15        -30.0330    10.3060   -11.8610 ca         1 LTK      -0.079300
      3 C17        -29.1350    11.4400   -12.3350 c3         1 LTK       0.197100
      4 C01        -33.0600     6.7590   -15.8200 ca         1 LTK      -0.052000
      5 C02        -33.3670     5.4710   -16.3010 ca         1 LTK       0.104000
      6 C03        -34.4310     4.7360   -15.7420 ca         1 LTK      -0.078000
      7 C04        -35.1930     5.2880   -14.6950 ca         1 LTK      -0.083000
      8 C05        -34.8710     6.5740   -14.2310 ca         1 LTK      -0.148000
      9 C06        -33.8330     7.3040   -14.7750 ca         1 LTK      -0.103800
     10 C07        -33.6460     8.6110   -14.1630 cc         1 LTK       0.103600
     11 C08        -34.5830     8.7870   -13.1400 cd         1 LTK      -0.313500
     12 C11        -32.2400     9.5000   -11.1720 ca         1 LTK       0.220000
     13 C12        -31.6990     8.2220   -10.9560 ca         1 LTK      -0.132000
     14 C14        -29.5070     9.0150   -11.6570 ca         1 LTK      -0.110000
     15 C16        -31.4010    10.5400   -11.6140 ca         1 LTK      -0.056000
     16 N10        -33.5920     9.7180   -10.9240 nu         1 LTK      -0.861100
     17 N18        -29.1790    11.5850   -13.8010 n8         1 LTK      -0.996200
     18 O19        -34.2770    11.4280   -12.6210 o          1 LTK      -0.525500
     19 O20        -36.0120    10.0810   -11.2810 o          1 LTK      -0.525500
     20 S09        -34.7650    10.1750   -12.0410 sy         1 LTK       1.167200
     21 S21        -35.7060     7.4170   -12.9260 ss         1 LTK       0.169400
     22 H1         -29.9260     6.9820   -11.0430 ha         1 LTK       0.118000
     23 H2         -29.4550    12.3850   -11.8750 h1         1 LTK       0.036700
     24 H3         -28.0980    11.2460   -12.0280 h1         1 LTK       0.036700
     25 H4         -32.5480     9.6420   -15.7040 hc         1 LTK       0.065700
     26 H5         -32.6470    10.5590   -14.2140 hc         1 LTK       0.065700
     27 H6         -31.5700     9.1640   -14.3090 hc         1 LTK       0.065700
     28 H7         -32.2340     7.3120   -16.2570 ha         1 LTK       0.135000
     29 H8         -34.6610     3.7420   -16.1180 ha         1 LTK       0.133000
     30 H10        -36.0150     4.7270   -14.2540 ha         1 LTK       0.131000
     31 H11        -32.3340     7.4110   -10.6090 ha         1 LTK       0.117000
     32 H12        -28.4540     8.8190   -11.8450 ha         1 LTK       0.114000
     33 H13        -31.8100    11.5350   -11.7620 ha         1 LTK       0.162000
     34 H14        -34.0540     8.9810   -10.4090 hn         1 LTK       0.488000
     35 H15        -28.5010    12.3030   -14.0840 hn         1 LTK       0.400500
     36 H16        -28.8140    10.7260   -14.2270 hn         1 LTK       0.400500
     37 Cl1        -32.4130     4.7750   -17.6050 cl         1 LTK      -0.196000
     38 C22        -32.5500     9.5490   -14.6130 c3         1 LTK      -0.064900
@<TRIPOS>BOND
     1     1    13 ar  
     2     1    14 ar  
     3     1    22 1   
     4     2     3 1   
     5     2    14 ar  
     6     2    15 ar  
     7     3    17 1   
     8     3    23 1   
     9     3    24 1   
    10     4     5 ar  
    11     4     9 ar  
    12     4    28 1   
    13     5     6 ar  
    14     5    37 1   
    15     6     7 ar  
    16     6    29 1   
    17     7     8 ar  
    18     7    30 1   
    19     8     9 ar  
    20     8    21 1   
    21     9    10 1   
    22    10    11 2   
    23    10    38 1   
    24    11    20 1   
    25    11    21 1   
    26    12    13 ar  
    27    12    15 ar  
    28    12    16 1   
    29    13    31 1   
    30    14    32 1   
    31    15    33 1   
    32    16    20 1   
    33    16    34 1   
    34    17    35 1   
    35    17    36 1   
    36    18    20 2   
    37    19    20 2   
    38    25    38 1   
    39    26    38 1   
    40    27    38 1   
@<TRIPOS>SUBSTRUCTURE
     1 LTK         1 TEMP              0 ****  ****    0 ROOT
