@<TRIPOS>MOLECULE
LTK
   38    40     1     0     0
SMALL
bcc


@<TRIPOS>ATOM
      1 C13        -30.3780     8.0130   -11.6260 ca         1 LTK      -0.121000
      2 C15        -29.9170    10.3780   -11.8320 ca         1 LTK      -0.079300
      3 C17        -28.9300    11.4980   -12.0500 c3         1 LTK       0.197100
      4 C01        -33.1260     6.3270   -15.7480 ca         1 LTK      -0.070000
      5 C02        -33.6010     5.0800   -16.0840 ca         1 LTK       0.012400
      6 C03        -34.7600     4.5470   -15.5080 ca         1 LTK      -0.096000
      7 C04        -35.4640     5.2740   -14.5730 ca         1 LTK      -0.101000
      8 C05        -34.9920     6.5360   -14.2190 ca         1 LTK      -0.021100
      9 C06        -33.8320     7.0720   -14.7970 ca         1 LTK      -0.103800
     10 C07        -33.5090     8.3860   -14.3000 cc         1 LTK       0.103600
     11 C08        -34.4440     8.7800   -13.3950 cd         1 LTK      -0.313500
     12 C11        -32.1430     9.6030   -11.3350 ca         1 LTK       0.081600
     13 C12        -31.7130     8.2820   -11.3690 ca         1 LTK      -0.150000
     14 C14        -29.4910     9.0530   -11.8670 ca         1 LTK      -0.128000
     15 C16        -31.2540    10.6450   -11.5590 ca         1 LTK      -0.074000
     16 N10        -33.5130     9.9000   -11.0850 nu         1 LTK      -0.667500
     17 N18        -29.5510    12.6710   -12.6370 n8         1 LTK      -0.885800
     18 O19        -33.9040    11.3280   -13.1140 o          1 LTK      -0.596300
     19 O20        -35.8370    10.3010   -11.8620 o          1 LTK      -0.596300
     20 S09        -34.4880    10.2180   -12.3900 sy         1 LTK       1.308800
     21 S21        -35.7070     7.6250   -13.0870 ss         1 LTK       0.042500
     22 H1         -30.0320     6.9880   -11.6560 ha         1 LTK       0.136000
     23 H2         -28.5200    11.7890   -11.0780 h1         1 LTK       0.036700
     24 H3         -28.0810    11.1070   -12.6250 h1         1 LTK       0.036700
     25 H4         -32.3720     9.2950   -15.8500 hc         1 LTK       0.065700
     26 H5         -32.1380    10.0620   -14.2800 hc         1 LTK       0.065700
     27 H6         -31.4120     8.4960   -14.6140 hc         1 LTK       0.065700
     28 H7         -32.2300     6.7210   -16.2100 ha         1 LTK       0.153000
     29 H8         -35.1020     3.5620   -15.7950 ha         1 LTK       0.151000
     30 H10        -36.3600     4.8640   -14.1250 ha         1 LTK       0.149000
     31 H11        -32.4170     7.4750   -11.2080 ha         1 LTK       0.135000
     32 H12        -28.4530     8.8300   -12.0870 ha         1 LTK       0.132000
     33 H13        -31.5990    11.6690   -11.5230 ha         1 LTK       0.180000
     34 H14        -33.9680     9.2580   -10.4430 hn         1 LTK       0.432800
     35 H15        -28.8840    13.4310   -12.6510 hn         1 LTK       0.345300
     36 H16        -29.7870    12.4850   -13.6030 hn         1 LTK       0.345300
     37 CL1        -32.7460     4.1330   -17.2550 cl         1 LTK      -0.104400
     38 C22        -32.2980     9.1110   -14.7770 c3         1 LTK      -0.064900
@<TRIPOS>BOND
     1     1    13 ar  
     2     1    14 ar  
     3     1    22 1   
     4     2     3 1   
     5     2    14 ar  
     6     2    15 ar  
     7     3    17 1   
     8     3    23 1   
     9     3    24 1   
    10     4     5 ar  
    11     4     9 ar  
    12     4    28 1   
    13     5     6 ar  
    14     5    37 1   
    15     6     7 ar  
    16     6    29 1   
    17     7     8 ar  
    18     7    30 1   
    19     8     9 ar  
    20     8    21 1   
    21     9    10 1   
    22    10    11 2   
    23    10    38 1   
    24    11    20 1   
    25    11    21 1   
    26    12    13 ar  
    27    12    15 ar  
    28    12    16 1   
    29    13    31 1   
    30    14    32 1   
    31    15    33 1   
    32    16    20 1   
    33    16    34 1   
    34    17    35 1   
    35    17    36 1   
    36    18    20 2   
    37    19    20 2   
    38    25    38 1   
    39    26    38 1   
    40    27    38 1   
@<TRIPOS>SUBSTRUCTURE
     1 LTK         1 TEMP              0 ****  ****    0 ROOT
