@<TRIPOS>MOLECULE
LTL
   26    25     1     0     0
SMALL
bcc


@<TRIPOS>ATOM
      1 C1          -1.0630     0.0020    -3.2150 c3         1 LTL      -0.100600
      2 C2           0.0440     0.0250    -2.1620 c3         1 LTL       0.157800
      3 C6          -0.5980     0.0880    -0.7670 c3         1 LTL      -0.092400
      4 C7           0.3960     0.0730     0.3830 c3         1 LTL      -0.178400
      5 C10         -0.2330     0.0130     1.7530 c          1 LTL       0.566100
      6 C13          0.7330    -0.0530     2.9110 c3         1 LTL      -0.181400
      7 C14          0.0790    -0.0730     4.2810 c3         1 LTL      -0.078100
      8 O20         -1.4330     0.0220     1.9190 o          1 LTL      -0.523100
      9 O21          0.8570    -1.1360    -2.2850 oh         1 LTL      -0.600800
     10 C22          0.9650     1.2130    -2.4130 c3         1 LTL      -0.100600
     11 HC11        -0.6430    -0.0450    -4.2210 hc         1 LTL       0.042033
     12 HC12        -1.7170    -0.8620    -3.0790 hc         1 LTL       0.042033
     13 HC13        -1.6840     0.8960    -3.1520 hc         1 LTL       0.042033
     14 HC61        -1.2860    -0.7570    -0.6650 hc         1 LTL       0.054200
     15 HC62        -1.2180     0.9870    -0.7090 hc         1 LTL       0.054200
     16 HC71         1.0370     0.9600     0.3660 hc         1 LTL       0.066700
     17 HC72         1.0840    -0.7730     0.2920 hc         1 LTL       0.066700
     18 H131         1.4200     0.7940     2.8200 hc         1 LTL       0.058700
     19 H132         1.3620    -0.9380     2.7680 hc         1 LTL       0.058700
     20 H141         0.8380    -0.1300     5.0600 hc         1 LTL       0.040367
     21 H142        -0.5100     0.8270     4.4570 hc         1 LTL       0.040367
     22 H143        -0.5810    -0.9320     4.3990 hc         1 LTL       0.040367
     23 H21          0.2940    -1.9090    -2.1720 ho         1 LTL       0.401000
     24 H221         0.4150     2.1490    -2.3120 hc         1 LTL       0.042033
     25 H222         1.8030     1.2390    -1.7150 hc         1 LTL       0.042033
     26 H223         1.3750     1.1770    -3.4240 hc         1 LTL       0.042033
@<TRIPOS>BOND
     1     1     2 1   
     2     1    11 1   
     3     1    12 1   
     4     1    13 1   
     5     2     3 1   
     6     2     9 1   
     7     2    10 1   
     8     3     4 1   
     9     3    14 1   
    10     3    15 1   
    11     4     5 1   
    12     4    16 1   
    13     4    17 1   
    14     5     6 1   
    15     5     8 2   
    16     6     7 1   
    17     6    18 1   
    18     6    19 1   
    19     7    20 1   
    20     7    21 1   
    21     7    22 1   
    22     9    23 1   
    23    10    24 1   
    24    10    25 1   
    25    10    26 1   
@<TRIPOS>SUBSTRUCTURE
     1 LTL         1 TEMP              0 ****  ****    0 ROOT
