@<TRIPOS>MOLECULE
LTL
   26    25     1     0     0
SMALL
No Charge or Current Charge


@<TRIPOS>ATOM
      1 C1          -1.2420    -0.5660    -2.6100 c3         1 LTL      -0.100600
      2 C2           0.0120    -0.0020    -1.9030 c3         1 LTL       0.181000
      3 C6          -0.3170     0.3460    -0.4200 c3         1 LTL      -0.092400
      4 C7           0.8670     0.8810     0.4380 c3         1 LTL      -0.178400
      5 C10          0.4450     1.1100     1.8980 c          1 LTL       0.566100
      6 C13          0.8450     0.0410     2.9290 c3         1 LTL      -0.181400
      7 C14         -0.3230    -0.9220     3.2360 c3         1 LTL      -0.078100
      8 O20         -0.1580     2.1210     2.2340 o          1 LTL      -0.523100
      9 O21          1.0140    -1.0200    -1.9270 oh         1 LTL      -0.663000
     10 C22          0.5570     1.2180    -2.6850 c3         1 LTL      -0.100600
     11 HC11        -1.0140    -0.8580    -3.6420 hc         1 LTL       0.042033
     12 HC12        -1.6290    -1.4490    -2.0860 hc         1 LTL       0.042033
     13 HC13        -2.0410     0.1850    -2.6400 hc         1 LTL       0.042033
     14 HC61        -0.7250    -0.5480     0.0680 hc         1 LTL       0.054200
     15 HC62        -1.1220     1.0910    -0.4050 hc         1 LTL       0.054200
     16 HC71         1.2070     1.8370     0.0240 hc         1 LTL       0.066700
     17 HC72         1.6770     0.1450     0.4000 hc         1 LTL       0.066700
     18 H131         1.1410     0.5350     3.8620 hc         1 LTL       0.058700
     19 H132         1.6730    -0.5650     2.5440 hc         1 LTL       0.058700
     20 H141        -0.0240    -1.6580     3.9910 hc         1 LTL       0.040367
     21 H142        -1.1910    -0.3710     3.6200 hc         1 LTL       0.040367
     22 H143        -0.6300    -1.4650     2.3340 hc         1 LTL       0.040367
     23 H21          0.6320    -1.8080    -1.4850 ho         1 LTL       0.440000
     24 H221        -0.1500     2.0550    -2.6400 hc         1 LTL       0.042033
     25 H222         1.5170     1.5570    -2.2790 hc         1 LTL       0.042033
     26 H223         0.7160     0.9650    -3.7400 hc         1 LTL       0.042033
@<TRIPOS>BOND
     1     1     2 1   
     2     1    11 1   
     3     1    12 1   
     4     1    13 1   
     5     2     3 1   
     6     2     9 1   
     7     2    10 1   
     8     3     4 1   
     9     3    14 1   
    10     3    15 1   
    11     4     5 1   
    12     4    16 1   
    13     4    17 1   
    14     5     6 1   
    15     5     8 2   
    16     6     7 1   
    17     6    18 1   
    18     6    19 1   
    19     7    20 1   
    20     7    21 1   
    21     7    22 1   
    22     9    23 1   
    23    10    24 1   
    24    10    25 1   
    25    10    26 1   
@<TRIPOS>SUBSTRUCTURE
     1 LTL         1 TEMP              0 ****  ****    0 ROOT
