@<TRIPOS>MOLECULE
LTM
   29    29     1     0     0
SMALL
abcg2


@<TRIPOS>ATOM
      1 O7           3.2490     0.1710     1.4440 o          1 LTM      -0.589100
      2 C7           3.2280     0.0280     0.2320 c          1 LTM       0.612100
      3 C8           4.4880     0.0430    -0.5940 c3         1 LTM      -0.179100
      4 N2           2.0890    -0.1630    -0.4670 ns         1 LTM      -0.500900
      5 C2           0.7800    -0.0900     0.1160 c6         1 LTM      -0.015300
      6 C3          -0.0840    -1.2700    -0.3180 c6         1 LTM       0.131300
      7 O3           0.4370    -2.4830     0.1600 oh         1 LTM      -0.659000
      8 C4          -1.4770    -1.1020     0.2710 c6         1 LTM       0.170300
      9 O4          -2.3170    -2.1760    -0.0540 oh         1 LTM      -0.656000
     10 C5          -2.1210     0.1550    -0.2960 c6         1 LTM       0.120700
     11 C6          -3.3990     0.5090     0.4480 c3         1 LTM       0.151600
     12 O6          -3.9610     1.6440    -0.1720 oh         1 LTM      -0.669000
     13 N5          -1.2060     1.2820    -0.2330 ns         1 LTM      -0.508900
     14 C1           0.1340     1.2630    -0.1710 c          1 LTM       0.548000
     15 O1           0.8150     2.2690    -0.2830 o          1 LTM      -0.549000
     16 H81C         5.2270    -0.6190    -0.1470 hc         1 LTM       0.062033
     17 H82C         4.3340    -0.2530    -1.6300 hc         1 LTM       0.062033
     18 H83C         4.9050     1.0510    -0.5870 hc         1 LTM       0.062033
     19 H2           2.1460    -0.1790    -1.4740 hn         1 LTM       0.311500
     20 HA           0.9030    -0.1440     1.2030 h1         1 LTM       0.119700
     21 H3          -0.1660    -1.2800    -1.4160 h1         1 LTM       0.046700
     22 HB           1.2390    -2.6910    -0.3310 ho         1 LTM       0.461000
     23 H4          -1.3760    -0.9910     1.3630 h1         1 LTM       0.053700
     24 HC          -1.9340    -2.9800     0.3130 ho         1 LTM       0.470000
     25 H5          -2.3720    -0.0450    -1.3470 h1         1 LTM       0.071700
     26 H61C        -4.0800    -0.3470     0.4140 h1         1 LTM       0.040700
     27 H62C        -3.1540     0.7010     1.5000 h1         1 LTM       0.040700
     28 HD          -1.6220     2.1860    -0.4140 hn         1 LTM       0.335500
     29 H6          -4.6550     1.9890     0.3960 ho         1 LTM       0.453000
@<TRIPOS>BOND
     1     1     2 2   
     2     2     3 1   
     3     2     4 1   
     4     3    16 1   
     5     3    17 1   
     6     3    18 1   
     7     4     5 1   
     8     4    19 1   
     9     5     6 1   
    10     5    14 1   
    11     5    20 1   
    12     6     7 1   
    13     6     8 1   
    14     6    21 1   
    15     7    22 1   
    16     8     9 1   
    17     8    10 1   
    18     8    23 1   
    19     9    24 1   
    20    10    11 1   
    21    10    13 1   
    22    10    25 1   
    23    11    12 1   
    24    11    26 1   
    25    11    27 1   
    26    12    29 1   
    27    13    14 1   
    28    13    28 1   
    29    14    15 2   
@<TRIPOS>SUBSTRUCTURE
     1 LTM         1 TEMP              0 ****  ****    0 ROOT
