@<TRIPOS>MOLECULE
LTM
   29    29     1     0     0
SMALL
No Charge or Current Charge


@<TRIPOS>ATOM
      1 O7           3.3140     0.5330     1.3920 o          1 LTM      -0.589100
      2 C7           3.3190     0.1300     0.2380 c          1 LTM       0.612100
      3 C8           4.5900     0.0390    -0.5940 c3         1 LTM      -0.179100
      4 N2           2.1750    -0.2960    -0.4030 ns         1 LTM      -0.500900
      5 C2           0.7900    -0.1890     0.1410 c6         1 LTM      -0.015300
      6 C3          -0.1410    -1.3100    -0.3890 c6         1 LTM       0.131300
      7 O3           0.3770    -2.6010    -0.0170 oh         1 LTM      -0.659000
      8 C4          -1.5730    -1.1290     0.1780 c6         1 LTM       0.170300
      9 O4          -2.3920    -2.2350    -0.2280 oh         1 LTM      -0.656000
     10 C5          -2.1680     0.2260    -0.3000 c6         1 LTM       0.120700
     11 C6          -3.4690     0.5940     0.4770 c3         1 LTM       0.151600
     12 O6          -3.9850     1.8830     0.0950 oh         1 LTM      -0.669000
     13 N5          -1.1880     1.3320    -0.2420 ns         1 LTM      -0.508900
     14 C1           0.1690     1.2330    -0.0280 c          1 LTM       0.548000
     15 O1           0.8360     2.2520     0.0540 o          1 LTM      -0.549000
     16 H81C         5.4780     0.3720    -0.0450 hc         1 LTM       0.062033
     17 H82C         4.7030    -0.9870    -0.9630 hc         1 LTM       0.062033
     18 H83C         4.4510     0.6060    -1.5210 hc         1 LTM       0.062033
     19 H2           2.2940    -0.5820    -1.3700 hn         1 LTM       0.311500
     20 HA           0.8470    -0.3130     1.2320 h1         1 LTM       0.119700
     21 H3          -0.1880    -1.2300    -1.4860 h1         1 LTM       0.046700
     22 HB           1.3520    -2.5580    -0.1400 ho         1 LTM       0.461000
     23 H4          -1.4980    -1.1060     1.2760 h1         1 LTM       0.053700
     24 HC          -1.7760    -3.0060    -0.2210 ho         1 LTM       0.470000
     25 H5          -2.4460     0.1120    -1.3570 h1         1 LTM       0.071700
     26 H61C        -4.2190    -0.1870     0.2930 h1         1 LTM       0.040700
     27 H62C        -3.2420     0.5870     1.5520 h1         1 LTM       0.040700
     28 HD          -1.5540     2.2750    -0.3170 hn         1 LTM       0.335500
     29 H6          -4.8060     2.0320     0.6170 ho         1 LTM       0.453000
@<TRIPOS>BOND
     1     1     2 2   
     2     2     3 1   
     3     2     4 1   
     4     3    16 1   
     5     3    17 1   
     6     3    18 1   
     7     4     5 1   
     8     4    19 1   
     9     5     6 1   
    10     5    14 1   
    11     5    20 1   
    12     6     7 1   
    13     6     8 1   
    14     6    21 1   
    15     7    22 1   
    16     8     9 1   
    17     8    10 1   
    18     8    23 1   
    19     9    24 1   
    20    10    11 1   
    21    10    13 1   
    22    10    25 1   
    23    11    12 1   
    24    11    26 1   
    25    11    27 1   
    26    12    29 1   
    27    13    14 1   
    28    13    28 1   
    29    14    15 2   
@<TRIPOS>SUBSTRUCTURE
     1 LTM         1 TEMP              0 ****  ****    0 ROOT
