@<TRIPOS>MOLECULE
LTN
   28    29     1     0     0
SMALL
No Charge or Current Charge


@<TRIPOS>ATOM
      1 NH3          1.0140     1.4400     1.9160 n8         1 LTN      -0.981200
      2 CA          -0.1110     0.4420     1.9800 c3         1 LTN       0.083500
      3 CB           0.2800    -0.8520     1.2170 c3         1 LTN      -0.039200
      4 CG           0.7350    -0.6110    -0.2030 cc         1 LTN      -0.152400
      5 CD2         -0.0830    -0.2080    -1.3120 ca         1 LTN      -0.095800
      6 CE2          0.7260    -0.0950    -2.4080 ca         1 LTN      -0.046200
      7 CE3         -1.4620     0.0410    -1.3830 ca         1 LTN      -0.064000
      8 CD1          2.0280    -0.7290    -0.7060 cd         1 LTN      -0.156100
      9 NE1          2.0340    -0.4030    -2.0840 na         1 LTN      -0.222700
     10 CZ2          0.2180     0.2840    -3.6580 ca         1 LTN      -0.126000
     11 CZ3         -2.0020     0.4250    -2.6280 ca         1 LTN      -0.138000
     12 CH2         -1.1650     0.5470    -3.7630 ca         1 LTN      -0.090000
     13 C           -0.6700     0.1090     3.4150 c          1 LTN       0.611100
     14 O           -0.0790     0.3670     4.4550 o          1 LTN      -0.604100
     15 N           -1.8790    -0.4990     3.4680 nt         1 LTN      -0.609000
     16 HH31         1.7890     1.1030     2.5010 hn         1 LTN       0.406000
     17 HH32         1.4020     1.4130     0.9650 hn         1 LTN       0.406000
     18 HA          -0.9550     0.8880     1.4350 h1         1 LTN       0.067700
     19 HB1          1.0690    -1.3720     1.7750 hc         1 LTN       0.056700
     20 HB2         -0.5770    -1.5360     1.2010 hc         1 LTN       0.056700
     21 HE3         -2.0990    -0.0600    -0.5070 ha         1 LTN       0.108000
     22 HD1          2.9390    -1.0170    -0.1850 h4         1 LTN       0.213000
     23 HE1          2.8350    -0.4020    -2.7100 hn         1 LTN       0.352000
     24 HZ2          0.8690     0.3720    -4.5250 ha         1 LTN       0.114000
     25 HZ3         -3.0670     0.6260    -2.7170 ha         1 LTN       0.111000
     26 HH2         -1.5890     0.8430    -4.7200 ha         1 LTN       0.111000
     27 HN1         -2.2760    -0.7280     4.3670 hn         1 LTN       0.312500
     28 HN2         -2.3790    -0.7120     2.6170 hn         1 LTN       0.312500
@<TRIPOS>BOND
     1     1     2 1   
     2     1    16 1   
     3     1    17 1   
     4     2     3 1   
     5     2    13 1   
     6     2    18 1   
     7     3     4 1   
     8     3    19 1   
     9     3    20 1   
    10     4     5 1   
    11     4     8 2   
    12     5     6 ar  
    13     5     7 ar  
    14     6     9 1   
    15     6    10 ar  
    16     7    11 ar  
    17     7    21 1   
    18     8     9 1   
    19     8    22 1   
    20     9    23 1   
    21    10    12 ar  
    22    10    24 1   
    23    11    12 ar  
    24    11    25 1   
    25    12    26 1   
    26    13    14 2   
    27    13    15 1   
    28    15    27 1   
    29    15    28 1   
@<TRIPOS>SUBSTRUCTURE
     1 LTN         1 TEMP              0 ****  ****    0 ROOT
