@<TRIPOS>MOLECULE
LTN
   28    29     1     0     0
SMALL
abcg2


@<TRIPOS>ATOM
      1 NH3          1.0910     1.2820     2.1390 n8         1 LTN      -0.981200
      2 CA          -0.0390     0.3930     1.9810 c3         1 LTN       0.083500
      3 CB           0.2620    -0.9040     1.1900 c3         1 LTN      -0.039200
      4 CG           0.7000    -0.6170    -0.2040 cc         1 LTN      -0.152400
      5 CD2         -0.1420    -0.2720    -1.3120 ca         1 LTN      -0.095800
      6 CE2          0.7030    -0.0320    -2.4190 ca         1 LTN      -0.046200
      7 CE3         -1.5270    -0.1540    -1.4760 ca         1 LTN      -0.064000
      8 CD1          1.9830    -0.5650    -0.6750 cd         1 LTN      -0.156100
      9 NE1          1.9870    -0.2190    -1.9980 na         1 LTN      -0.222700
     10 CZ2          0.2030     0.3180    -3.6720 ca         1 LTN      -0.126000
     11 CZ3         -2.0270     0.1920    -2.7160 ca         1 LTN      -0.138000
     12 CH2         -1.1690     0.4260    -3.8030 ca         1 LTN      -0.090000
     13 C           -0.5570    -0.0040     3.3560 c          1 LTN       0.611100
     14 O            0.2050    -0.2450     4.2810 o          1 LTN      -0.604100
     15 N           -1.8880    -0.1200     3.4500 nt         1 LTN      -0.609000
     16 HH31         1.8390     0.7970     2.6220 hn         1 LTN       0.406000
     17 HH32         1.4520     1.5190     1.2230 hn         1 LTN       0.406000
     18 HA          -0.8210     0.9420     1.4460 h1         1 LTN       0.067700
     19 HB1          1.0380    -1.4630     1.7210 hc         1 LTN       0.056700
     20 HB2         -0.6290    -1.5400     1.1810 hc         1 LTN       0.056700
     21 HE3         -2.2000    -0.3310    -0.6450 ha         1 LTN       0.108000
     22 HD1          2.9090    -0.7600    -0.1580 h4         1 LTN       0.213000
     23 HE1          2.8110    -0.1160    -2.5640 hn         1 LTN       0.352000
     24 HZ2          0.8630     0.5010    -4.5110 ha         1 LTN       0.114000
     25 HZ3         -3.0970     0.2840    -2.8570 ha         1 LTN       0.111000
     26 HH2         -1.5900     0.6990    -4.7620 ha         1 LTN       0.111000
     27 HN1         -2.3190    -0.4440     4.3010 hn         1 LTN       0.312500
     28 HN2         -2.4970     0.1100     2.6840 hn         1 LTN       0.312500
@<TRIPOS>BOND
     1     1     2 1   
     2     1    16 1   
     3     1    17 1   
     4     2     3 1   
     5     2    13 1   
     6     2    18 1   
     7     3     4 1   
     8     3    19 1   
     9     3    20 1   
    10     4     5 1   
    11     4     8 2   
    12     5     6 ar  
    13     5     7 ar  
    14     6     9 1   
    15     6    10 ar  
    16     7    11 ar  
    17     7    21 1   
    18     8     9 1   
    19     8    22 1   
    20     9    23 1   
    21    10    12 ar  
    22    10    24 1   
    23    11    12 ar  
    24    11    25 1   
    25    12    26 1   
    26    13    14 2   
    27    13    15 1   
    28    15    27 1   
    29    15    28 1   
@<TRIPOS>SUBSTRUCTURE
     1 LTN         1 TEMP              0 ****  ****    0 ROOT
