@<TRIPOS>MOLECULE
LTO
   46    48     1     0     0
SMALL
No Charge or Current Charge


@<TRIPOS>ATOM
      1 C13        -24.3640   -41.0780    35.0730 c6         1 LTO      -0.039500
      2 C15        -22.0780   -41.5870    34.1260 ce         1 LTO      -0.285200
      3 C20        -24.8330   -40.5720    36.4590 c6         1 LTO      -0.069900
      4 C21        -26.3420   -40.8460    36.6700 c6         1 LTO       0.171300
      5 C22        -31.8620   -40.8480    35.1820 ca         1 LTO      -0.097800
      6 C01        -32.6790   -43.0230    34.5540 ca         1 LTO      -0.142000
      7 C02        -33.9400   -42.6920    35.1090 ca         1 LTO      -0.091000
      8 C03        -34.1500   -41.4260    35.7010 ca         1 LTO      -0.129000
      9 C04        -33.0770   -40.5260    35.7170 ca         1 LTO      -0.047200
     10 C06        -31.7360   -38.6960    36.0270 cc         1 LTO      -0.156100
     11 C07        -31.0150   -39.6940    35.3790 cd         1 LTO      -0.142400
     12 C08        -29.5720   -39.5910    34.9490 c3         1 LTO      -0.000200
     13 C09        -28.6270   -40.3970    35.8710 c3         1 LTO       0.172800
     14 C11        -26.7600   -40.7270    34.2500 c6         1 LTO       0.171300
     15 C12        -25.2590   -40.4590    33.9730 c6         1 LTO      -0.069900
     16 C14        -22.8960   -40.7600    34.8270 c2         1 LTO      -0.161200
     17 C16        -20.6330   -41.3690    33.8240 c          1 LTO       0.606300
     18 C23        -31.6160   -42.0930    34.5860 ca         1 LTO      -0.061000
     19 N05        -33.0220   -39.2420    36.2280 na         1 LTO      -0.225700
     20 N10        -27.1740   -40.2310    35.5970 n3         1 LTO      -0.730600
     21 N18        -20.0800   -40.1890    34.3060 ns         1 LTO      -0.390400
     22 O17        -19.9800   -42.1900    33.1950 o          1 LTO      -0.565100
     23 O19        -18.7720   -39.7430    33.8690 oh         1 LTO      -0.425100
     24 H1         -24.4950   -42.1700    35.0500 hc         1 LTO       0.055700
     25 H2         -22.4680   -42.5190    33.7200 ha         1 LTO       0.204000
     26 H4         -24.2550   -41.0620    37.2540 hc         1 LTO       0.049450
     27 H5         -24.6450   -39.4940    36.5520 hc         1 LTO       0.049450
     28 H6         -26.6340   -40.4470    37.6530 h1         1 LTO       0.032450
     29 H7         -26.5080   -41.9330    36.7030 h1         1 LTO       0.032450
     30 H9         -34.7510   -43.4160    35.0790 ha         1 LTO       0.110000
     31 H10        -35.1140   -41.1620    36.1290 ha         1 LTO       0.112000
     32 H11        -31.4520   -37.6970    36.3450 h4         1 LTO       0.212000
     33 H12        -29.4800   -39.9470    33.9170 hc         1 LTO       0.050200
     34 H13        -29.2560   -38.5410    34.9480 hc         1 LTO       0.050200
     35 H14        -28.8340   -40.0780    36.9020 h1         1 LTO       0.034200
     36 H15        -28.8990   -41.4600    35.8090 h1         1 LTO       0.034200
     37 H16        -27.3390   -40.2350    33.4570 h1         1 LTO       0.032450
     38 H17        -26.9520   -41.8070    34.1680 h1         1 LTO       0.032450
     39 H18        -24.9880   -40.8710    32.9920 hc         1 LTO       0.049450
     40 H19        -25.0880   -39.3760    33.9170 hc         1 LTO       0.049450
     41 H20        -22.5420   -39.8170    35.2480 ha         1 LTO       0.169000
     42 H22        -30.6450   -42.3360    34.1630 ha         1 LTO       0.112000
     43 H23        -33.7980   -38.7660    36.6800 hn         1 LTO       0.350000
     44 H25        -20.6950   -39.4720    34.6820 hn         1 LTO       0.334500
     45 H26        -18.3040   -39.5350    34.7120 ho         1 LTO       0.445000
     46 H8         -32.5270   -44.0000    34.1010 ha         1 LTO       0.110000
@<TRIPOS>BOND
     1     1     3 1   
     2     1    15 1   
     3     1    16 1   
     4     1    24 1   
     5     2    16 2   
     6     2    17 1   
     7     2    25 1   
     8     3     4 1   
     9     3    26 1   
    10     3    27 1   
    11     4    20 1   
    12     4    28 1   
    13     4    29 1   
    14     5     9 ar  
    15     5    11 1   
    16     5    18 ar  
    17     6     7 ar  
    18     6    18 ar  
    19     6    46 1   
    20     7     8 ar  
    21     7    30 1   
    22     8     9 ar  
    23     8    31 1   
    24     9    19 1   
    25    10    11 2   
    26    10    19 1   
    27    10    32 1   
    28    11    12 1   
    29    12    13 1   
    30    12    33 1   
    31    12    34 1   
    32    13    20 1   
    33    13    35 1   
    34    13    36 1   
    35    14    15 1   
    36    14    20 1   
    37    14    37 1   
    38    14    38 1   
    39    15    39 1   
    40    15    40 1   
    41    16    41 1   
    42    17    21 1   
    43    17    22 2   
    44    18    42 1   
    45    19    43 1   
    46    21    23 1   
    47    21    44 1   
    48    23    45 1   
@<TRIPOS>SUBSTRUCTURE
     1 LTO         1 TEMP              0 ****  ****    0 ROOT
