@<TRIPOS>MOLECULE
LTO
   46    48     1     0     0
SMALL
bcc


@<TRIPOS>ATOM
      1 C13        -24.3960   -41.1690    35.0020 c6         1 LTO      -0.039500
      2 C15        -21.9810   -41.5740    34.4740 ce         1 LTO      -0.235200
      3 C20        -24.8090   -40.4540    36.2920 c6         1 LTO      -0.069900
      4 C21        -26.2550   -40.7600    36.6510 c6         1 LTO       0.171300
      5 C22        -31.7840   -40.7810    35.1480 ca         1 LTO      -0.097800
      6 C01        -32.7480   -42.7850    34.2520 ca         1 LTO      -0.160000
      7 C02        -33.9800   -42.4670    34.8490 ca         1 LTO      -0.109000
      8 C03        -34.1400   -41.3170    35.5980 ca         1 LTO      -0.147000
      9 C04        -33.0320   -40.4820    35.7390 ca         1 LTO      -0.047200
     10 C06        -31.6120   -38.8430    36.2470 cc         1 LTO      -0.106100
     11 C07        -30.8880   -39.7140    35.4830 cd         1 LTO      -0.142400
     12 C08        -29.4500   -39.5980    35.0980 c3         1 LTO      -0.000200
     13 C09        -28.5470   -40.4980    35.9430 c3         1 LTO       0.172800
     14 C11        -26.8320   -41.1330    34.3690 c6         1 LTO       0.171300
     15 C12        -25.4130   -40.8480    33.9040 c6         1 LTO      -0.069900
     16 C14        -23.0240   -40.7540    34.5890 c2         1 LTO      -0.111200
     17 C16        -20.6380   -41.1720    33.9890 c          1 LTO       0.673300
     18 C23        -31.6530   -41.9550    34.3950 ca         1 LTO      -0.079000
     19 N05        -32.8930   -39.3000    36.4030 na         1 LTO      -0.175400
     20 N10        -27.1490   -40.3850    35.5720 n3         1 LTO      -0.730600
     21 N18        -20.2230   -39.9590    34.4140 ns         1 LTO      -0.457400
     22 O17        -19.9580   -41.9050    33.2910 o          1 LTO      -0.565100
     23 O19        -19.1450   -39.3700    33.8220 oh         1 LTO      -0.386100
     24 H1         -24.4080   -42.2500    35.1840 hc         1 LTO       0.055700
     25 H2         -22.0990   -42.6370    34.6600 ha         1 LTO       0.154000
     26 H4         -24.1570   -40.7540    37.1150 hc         1 LTO       0.049450
     27 H5         -24.6930   -39.3740    36.1640 hc         1 LTO       0.049450
     28 H6         -26.5310   -40.1980    37.5470 h1         1 LTO       0.032450
     29 H7         -26.3500   -41.8310    36.9070 h1         1 LTO       0.032450
     30 H9         -34.8210   -43.1370    34.7200 ha         1 LTO       0.128000
     31 H10        -35.0900   -41.0730    36.0560 ha         1 LTO       0.130000
     32 H11        -31.3050   -37.9110    36.6960 h4         1 LTO       0.162000
     33 H12        -29.3390   -39.8400    34.0370 hc         1 LTO       0.050200
     34 H13        -29.1140   -38.5650    35.2160 hc         1 LTO       0.050200
     35 H14        -28.6510   -40.1910    36.9860 h1         1 LTO       0.034200
     36 H15        -28.9020   -41.5410    35.8940 h1         1 LTO       0.034200
     37 H16        -27.5280   -40.8600    33.5740 h1         1 LTO       0.032450
     38 H17        -26.9530   -42.2190    34.5340 h1         1 LTO       0.032450
     39 H18        -25.1960   -41.4340    33.0080 hc         1 LTO       0.049450
     40 H19        -25.3300   -39.7920    33.6250 hc         1 LTO       0.049450
     41 H20        -22.9170   -39.6970    34.3530 ha         1 LTO       0.119000
     42 H22        -30.7070   -42.2090    33.9320 ha         1 LTO       0.130000
     43 H23        -33.6180   -38.8240    36.9130 hn         1 LTO       0.299700
     44 H25        -20.8180   -39.3280    34.9310 hn         1 LTO       0.334500
     45 H26        -18.3940   -39.5360    34.4070 ho         1 LTO       0.406000
     46 H8         -32.6610   -43.6950    33.6730 ha         1 LTO       0.128000
@<TRIPOS>BOND
     1     1     3 1   
     2     1    15 1   
     3     1    16 1   
     4     1    24 1   
     5     2    16 2   
     6     2    17 1   
     7     2    25 1   
     8     3     4 1   
     9     3    26 1   
    10     3    27 1   
    11     4    20 1   
    12     4    28 1   
    13     4    29 1   
    14     5     9 ar  
    15     5    11 1   
    16     5    18 ar  
    17     6     7 ar  
    18     6    18 ar  
    19     6    46 1   
    20     7     8 ar  
    21     7    30 1   
    22     8     9 ar  
    23     8    31 1   
    24     9    19 1   
    25    10    11 2   
    26    10    19 1   
    27    10    32 1   
    28    11    12 1   
    29    12    13 1   
    30    12    33 1   
    31    12    34 1   
    32    13    20 1   
    33    13    35 1   
    34    13    36 1   
    35    14    15 1   
    36    14    20 1   
    37    14    37 1   
    38    14    38 1   
    39    15    39 1   
    40    15    40 1   
    41    16    41 1   
    42    17    21 1   
    43    17    22 2   
    44    18    42 1   
    45    19    43 1   
    46    21    23 1   
    47    21    44 1   
    48    23    45 1   
@<TRIPOS>SUBSTRUCTURE
     1 LTO         1 TEMP              0 ****  ****    0 ROOT
