@<TRIPOS>MOLECULE
LTQ
   48    50     1     0     0
SMALL
No Charge or Current Charge


@<TRIPOS>ATOM
      1 O24         -5.6440    -0.4870    -0.7170 o          1 LTQ      -0.535100
      2 C23         -4.7070    -1.2100    -0.3910 c          1 LTQ       0.611100
      3 N25         -4.7590    -2.0620     0.7130 ns         1 LTQ      -0.376400
      4 O26         -5.8210    -1.9450     1.6910 oh         1 LTQ      -0.411100
      5 C19         -3.3220    -1.3820    -1.1330 c5         1 LTQ       0.152500
      6 C20         -3.5670    -1.6320    -2.6500 c5         1 LTQ       0.054600
      7 S21         -3.4650     0.0220    -3.4970 ss         1 LTQ      -0.433000
      8 C22         -2.9930     0.8550    -1.9120 c5         1 LTQ       0.363800
      9 N18         -2.3820    -0.2120    -1.1010 n3         1 LTQ      -0.768500
     10 S13         -1.7560     0.2660     0.4050 s6         1 LTQ       1.311200
     11 O16         -2.8330     0.9660     1.1050 o          1 LTQ      -0.532500
     12 O17         -1.0390    -0.8640     0.9940 o          1 LTQ      -0.532500
     13 N10         -0.6140     1.4160    -0.1500 n3         1 LTQ      -0.789500
     14 C11          0.0570     2.2110     0.9170 c6         1 LTQ       0.210800
     15 C12          1.2220     1.4400     1.6210 c6         1 LTQ       0.163300
     16 C09          0.4000     0.9380    -1.1410 c6         1 LTQ       0.210800
     17 C08          1.5910     0.1570    -0.4920 c6         1 LTQ       0.163300
     18 N07          2.2220     0.9030     0.6440 nh         1 LTQ      -0.785400
     19 C04          3.5080     0.5200     1.0820 ca         1 LTQ       0.291000
     20 C05          3.6360    -0.3440     2.1850 ca         1 LTQ      -0.161000
     21 C06          4.9030    -0.7500     2.6370 ca         1 LTQ      -0.054000
     22 C03          4.6720     0.9850     0.4230 ca         1 LTQ      -0.089300
     23 C15          4.5830     1.9350    -0.7700 c3         1 LTQ      -0.044800
     24 C02          5.9420     0.5730     0.8800 ca         1 LTQ      -0.058000
     25 C01          6.0600    -0.2920     1.9840 ca         1 LTQ      -0.035000
     26 C14          7.3590    -0.7050     2.4420 cg         1 LTQ       0.326000
     27 N27          8.4180    -1.0350     2.8070 n1         1 LTQ      -0.453000
     28 H1          -3.9110    -2.5330     1.0280 hn         1 LTQ       0.334500
     29 H2          -6.1450    -2.8710     1.7970 ho         1 LTQ       0.443000
     30 H3          -2.8310    -2.2690    -0.7100 h1         1 LTQ       0.055700
     31 H4          -2.7780    -2.2770    -3.0580 h1         1 LTQ       0.093200
     32 H5          -4.5320    -2.1190    -2.8460 h1         1 LTQ       0.093200
     33 H6          -2.2850     1.6670    -2.1250 h2         1 LTQ       0.088700
     34 H7          -3.8930     1.2590    -1.4300 h2         1 LTQ       0.088700
     35 H8           0.4860     3.1220     0.4750 h1         1 LTQ       0.073950
     36 H9          -0.6650     2.5500     1.6750 h1         1 LTQ       0.073950
     37 H10          1.7180     2.1290     2.3210 h1         1 LTQ       0.048450
     38 H11          0.8020     0.6200     2.2190 h1         1 LTQ       0.048450
     39 H12         -0.0510     0.3140    -1.9250 h1         1 LTQ       0.073950
     40 H13          0.8290     1.8070    -1.6600 h1         1 LTQ       0.073950
     41 H14          1.2380    -0.8230    -0.1420 h1         1 LTQ       0.048450
     42 H15          2.3380    -0.0400    -1.2740 h1         1 LTQ       0.048450
     43 H16          2.7480    -0.7130     2.6900 ha         1 LTQ       0.119000
     44 H17          4.9810    -1.4210     3.4910 ha         1 LTQ       0.126000
     45 H18          3.8790     2.7530    -0.5750 hc         1 LTQ       0.047700
     46 H19          5.5530     2.3910    -1.0010 hc         1 LTQ       0.047700
     47 H20          4.2440     1.4070    -1.6680 hc         1 LTQ       0.047700
     48 H21          6.8390     0.9280     0.3760 ha         1 LTQ       0.126000
@<TRIPOS>BOND
     1     1     2 2   
     2     2     3 1   
     3     2     5 1   
     4     3     4 1   
     5     3    28 1   
     6     4    29 1   
     7     5     6 1   
     8     5     9 1   
     9     5    30 1   
    10     6     7 1   
    11     6    31 1   
    12     6    32 1   
    13     7     8 1   
    14     8     9 1   
    15     8    33 1   
    16     8    34 1   
    17     9    10 1   
    18    10    11 2   
    19    10    12 2   
    20    10    13 1   
    21    13    14 1   
    22    13    16 1   
    23    14    15 1   
    24    14    35 1   
    25    14    36 1   
    26    15    18 1   
    27    15    37 1   
    28    15    38 1   
    29    16    17 1   
    30    16    39 1   
    31    16    40 1   
    32    17    18 1   
    33    17    41 1   
    34    17    42 1   
    35    18    19 1   
    36    19    20 ar  
    37    19    22 ar  
    38    20    21 ar  
    39    20    43 1   
    40    21    25 ar  
    41    21    44 1   
    42    22    23 1   
    43    22    24 ar  
    44    23    45 1   
    45    23    46 1   
    46    23    47 1   
    47    24    25 ar  
    48    24    48 1   
    49    25    26 1   
    50    26    27 3   
@<TRIPOS>SUBSTRUCTURE
     1 LTQ         1 TEMP              0 ****  ****    0 ROOT
