@<TRIPOS>MOLECULE
LTQ
   48    50     1     0     0
SMALL
abcg2


@<TRIPOS>ATOM
      1 O24         -5.0750    -0.7910    -0.0210 o          1 LTQ      -0.535100
      2 C23         -4.1690    -0.8610     0.7830 c          1 LTQ       0.611100
      3 N25         -4.3280    -0.9700     2.1110 ns         1 LTQ      -0.376400
      4 O26         -5.5650    -0.8280     2.6580 oh         1 LTQ      -0.411100
      5 C19         -2.7060    -0.9490     0.3550 c5         1 LTQ       0.152500
      6 C20         -2.4080    -2.3490    -0.1890 c5         1 LTQ       0.054600
      7 S21         -1.0220    -2.1240    -1.3310 ss         1 LTQ      -0.433000
      8 C22         -1.8320    -0.6170    -1.9250 c5         1 LTQ       0.363800
      9 N18         -2.4430    -0.0280    -0.7420 n3         1 LTQ      -0.768500
     10 S13         -2.2790     1.5860    -0.4350 s6         1 LTQ       1.311200
     11 O16         -2.5360     2.2650    -1.6890 o          1 LTQ      -0.532500
     12 O17         -3.1130     1.8080     0.7320 o          1 LTQ      -0.532500
     13 N10         -0.7530     1.9780    -0.0000 n3         1 LTQ      -0.789500
     14 C11         -0.2280     1.5820     1.3020 c6         1 LTQ       0.210800
     15 C12          0.8110     0.4820     1.1670 c6         1 LTQ       0.163300
     16 C09          0.2880     2.3200    -0.9630 c6         1 LTQ       0.210800
     17 C08          1.3500     1.2410    -1.0480 c6         1 LTQ       0.163300
     18 N07          1.8660     0.9260     0.2770 nh         1 LTQ      -0.785400
     19 C04          3.0830     0.2390     0.3120 ca         1 LTQ       0.291000
     20 C05          3.1590    -1.0810     0.7680 ca         1 LTQ      -0.161000
     21 C06          4.3640    -1.7550     0.8180 ca         1 LTQ      -0.054000
     22 C03          4.2620     0.9050    -0.0850 ca         1 LTQ      -0.089300
     23 C15          4.2600     2.3500    -0.4870 c3         1 LTQ      -0.044800
     24 C02          5.4610     0.2130    -0.0430 ca         1 LTQ      -0.058000
     25 C01          5.5230    -1.1090     0.3980 ca         1 LTQ      -0.035000
     26 C14          6.7750    -1.7880     0.4360 cg         1 LTQ       0.326000
     27 N27          7.7870    -2.3390     0.4650 n1         1 LTQ      -0.453000
     28 H1          -3.5640    -0.8500     2.7600 hn         1 LTQ       0.334500
     29 H2          -5.9000    -1.7230     2.8000 ho         1 LTQ       0.443000
     30 H3          -2.0310    -0.7670     1.1990 h1         1 LTQ       0.055700
     31 H4          -2.1290    -3.0320     0.6110 h1         1 LTQ       0.093200
     32 H5          -3.2650    -2.7570    -0.7250 h1         1 LTQ       0.093200
     33 H6          -1.0940     0.0350    -2.3890 h2         1 LTQ       0.088700
     34 H7          -2.5940    -0.8580    -2.6670 h2         1 LTQ       0.088700
     35 H8           0.2290     2.4640     1.7580 h1         1 LTQ       0.073950
     36 H9          -1.0320     1.2630     1.9620 h1         1 LTQ       0.073950
     37 H10          1.2280     0.2780     2.1540 h1         1 LTQ       0.048450
     38 H11          0.3250    -0.4400     0.8100 h1         1 LTQ       0.048450
     39 H12         -0.1400     2.5070    -1.9460 h1         1 LTQ       0.073950
     40 H13          0.7480     3.2550    -0.6280 h1         1 LTQ       0.073950
     41 H14          0.9460     0.3360    -1.5240 h1         1 LTQ       0.048450
     42 H15          2.1500     1.6000    -1.6930 h1         1 LTQ       0.048450
     43 H16          2.2640    -1.6030     1.0770 ha         1 LTQ       0.119000
     44 H17          4.4000    -2.7780     1.1660 ha         1 LTQ       0.126000
     45 H18          3.5060     2.9100     0.0670 hc         1 LTQ       0.047700
     46 H19          5.2320     2.8010    -0.2970 hc         1 LTQ       0.047700
     47 H20          4.0490     2.4830    -1.5500 hc         1 LTQ       0.047700
     48 H21          6.3740     0.7170    -0.3360 ha         1 LTQ       0.126000
@<TRIPOS>BOND
     1     1     2 2   
     2     2     3 1   
     3     2     5 1   
     4     3     4 1   
     5     3    28 1   
     6     4    29 1   
     7     5     6 1   
     8     5     9 1   
     9     5    30 1   
    10     6     7 1   
    11     6    31 1   
    12     6    32 1   
    13     7     8 1   
    14     8     9 1   
    15     8    33 1   
    16     8    34 1   
    17     9    10 1   
    18    10    11 2   
    19    10    12 2   
    20    10    13 1   
    21    13    14 1   
    22    13    16 1   
    23    14    15 1   
    24    14    35 1   
    25    14    36 1   
    26    15    18 1   
    27    15    37 1   
    28    15    38 1   
    29    16    17 1   
    30    16    39 1   
    31    16    40 1   
    32    17    18 1   
    33    17    41 1   
    34    17    42 1   
    35    18    19 1   
    36    19    20 ar  
    37    19    22 ar  
    38    20    21 ar  
    39    20    43 1   
    40    21    25 ar  
    41    21    44 1   
    42    22    23 1   
    43    22    24 ar  
    44    23    45 1   
    45    23    46 1   
    46    23    47 1   
    47    24    25 ar  
    48    24    48 1   
    49    25    26 1   
    50    26    27 3   
@<TRIPOS>SUBSTRUCTURE
     1 LTQ         1 TEMP              0 ****  ****    0 ROOT
