@<TRIPOS>MOLECULE
LTR
   26    27     1     0     0
SMALL
bcc


@<TRIPOS>ATOM
      1 N            1.0310     1.3480     2.0050 n8         1 LTR      -0.874800
      2 CA          -0.0790     0.4200     1.9110 c3         1 LTR       0.023500
      3 C           -0.5950     0.0210     3.3100 c          1 LTR       0.932600
      4 O            0.2020     0.1190     4.2640 o          1 LTR      -0.837300
      5 CB           0.2520    -0.8780     1.1360 c3         1 LTR      -0.044200
      6 CG           0.6880    -0.6180    -0.2660 cc         1 LTR      -0.092400
      7 CD1          1.9680    -0.5840    -0.7470 cd         1 LTR      -0.149100
      8 CD2         -0.1550    -0.2710    -1.3730 ca         1 LTR      -0.093800
      9 NE1          1.9680    -0.2500    -2.0750 na         1 LTR      -0.186400
     10 CE2          0.6850    -0.0510    -2.4880 ca         1 LTR      -0.050200
     11 CE3         -1.5400    -0.1350    -1.5280 ca         1 LTR      -0.052000
     12 CZ2          0.1790     0.2990    -3.7400 ca         1 LTR      -0.167000
     13 CZ3         -2.0450     0.2100    -2.7670 ca         1 LTR      -0.184000
     14 CH2         -1.1910     0.4250    -3.8620 ca         1 LTR      -0.117000
     15 OXT         -1.7620    -0.4160     3.3590 o          1 LTR      -0.837300
     16 H            1.5200     1.3870     1.1180 hn         1 LTR       0.320800
     17 HN2          1.6900     0.9830     2.6820 hn         1 LTR       0.320800
     18 HA          -0.9000     0.9150     1.3780 h1         1 LTR       0.048700
     19 HB1          1.0400    -1.4150     1.6740 hc         1 LTR       0.051700
     20 HB2         -0.6290    -1.5250     1.1390 hc         1 LTR       0.051700
     21 HD1          2.8960    -0.7850    -0.2340 h4         1 LTR       0.155000
     22 HE1          2.7900    -0.1530    -2.6460 hn         1 LTR       0.283700
     23 HE3         -2.2070    -0.2950    -0.6900 ha         1 LTR       0.152000
     24 HZ2          0.8360     0.4670    -4.5850 ha         1 LTR       0.115000
     25 HZ3         -3.1140     0.3170    -2.9000 ha         1 LTR       0.119000
     26 HH2         -1.6150     0.6980    -4.8200 ha         1 LTR       0.111000
@<TRIPOS>BOND
     1     1     2 1   
     2     1    16 1   
     3     1    17 1   
     4     2     3 1   
     5     2     5 1   
     6     2    18 1   
     7     3     4 1   
     8     3    15 1   
     9     5     6 1   
    10     5    19 1   
    11     5    20 1   
    12     6     7 2   
    13     6     8 1   
    14     7     9 1   
    15     7    21 1   
    16     8    10 ar  
    17     8    11 ar  
    18     9    10 1   
    19     9    22 1   
    20    10    12 ar  
    21    11    13 ar  
    22    11    23 1   
    23    12    14 ar  
    24    12    24 1   
    25    13    14 ar  
    26    13    25 1   
    27    14    26 1   
@<TRIPOS>SUBSTRUCTURE
     1 LTR         1 TEMP              0 ****  ****    0 ROOT
