@<TRIPOS>MOLECULE
LTR
   26    27     1     0     0
SMALL
No Charge or Current Charge


@<TRIPOS>ATOM
      1 N            0.9430     1.4280     1.9570 n8         1 LTR      -0.985200
      2 CA          -0.1440     0.3820     1.9220 c3         1 LTR       0.023500
      3 C           -0.7710    -0.0390     3.3160 c          1 LTR       0.722000
      4 O           -0.0270    -0.4780     4.1860 o          1 LTR      -0.732000
      5 CB           0.3450    -0.8690     1.1460 c3         1 LTR      -0.044200
      6 CG           0.7750    -0.5840    -0.2730 cc         1 LTR      -0.092400
      7 CD1          2.0710    -0.5950    -0.7810 cd         1 LTR      -0.199100
      8 CD2         -0.0770    -0.2470    -1.3790 ca         1 LTR      -0.093800
      9 NE1          2.0460    -0.2680    -2.1600 na         1 LTR      -0.236700
     10 CE2          0.7160    -0.0670    -2.4780 ca         1 LTR      -0.050200
     11 CE3         -1.4730    -0.1080    -1.4440 ca         1 LTR      -0.034000
     12 CZ2          0.1740     0.2710    -3.7260 ca         1 LTR      -0.149000
     13 CZ3         -2.0450     0.2320    -2.6890 ca         1 LTR      -0.166000
     14 CH2         -1.2250     0.4220    -3.8250 ca         1 LTR      -0.099000
     15 OXT         -1.9670     0.1520     3.4970 o          1 LTR      -0.732000
     16 H            1.3720     1.4710     1.0250 hn         1 LTR       0.376000
     17 HN2          1.7020     1.0900     2.5600 hn         1 LTR       0.376000
     18 HA          -0.9700     0.8130     1.3390 h1         1 LTR       0.048700
     19 HB1          1.1700    -1.3390     1.6960 hc         1 LTR       0.051700
     20 HB2         -0.4650    -1.6090     1.1290 hc         1 LTR       0.051700
     21 HD1          3.0020    -0.8080    -0.2630 h4         1 LTR       0.205000
     22 HE1          2.8410    -0.2000    -2.7890 hn         1 LTR       0.334000
     23 HE3         -2.0950    -0.2600    -0.5650 ha         1 LTR       0.134000
     24 HZ2          0.8130     0.4120    -4.5940 ha         1 LTR       0.097000
     25 HZ3         -3.1230     0.3480    -2.7730 ha         1 LTR       0.101000
     26 HH2         -1.6740     0.6830    -4.7810 ha         1 LTR       0.093000
@<TRIPOS>BOND
     1     1     2 1   
     2     1    16 1   
     3     1    17 1   
     4     2     3 1   
     5     2     5 1   
     6     2    18 1   
     7     3     4 1   
     8     3    15 1   
     9     5     6 1   
    10     5    19 1   
    11     5    20 1   
    12     6     7 2   
    13     6     8 1   
    14     7     9 1   
    15     7    21 1   
    16     8    10 ar  
    17     8    11 ar  
    18     9    10 1   
    19     9    22 1   
    20    10    12 ar  
    21    11    13 ar  
    22    11    23 1   
    23    12    14 ar  
    24    12    24 1   
    25    13    14 ar  
    26    13    25 1   
    27    14    26 1   
@<TRIPOS>SUBSTRUCTURE
     1 LTR         1 TEMP              0 ****  ****    0 ROOT
