@<TRIPOS>MOLECULE
LTS
   49    51     1     0     0
SMALL
bcc


@<TRIPOS>ATOM
      1 C4           3.9890    -0.3820     0.6170 ca         1 LTS      -0.027000
      2 C5           3.7690    -1.5450    -0.1070 ca         1 LTS      -0.256500
      3 C6           4.2450    -1.7030    -1.3990 ca         1 LTS      -0.025000
      4 C10          1.1640    -2.4510     0.2740 ca         1 LTS      -0.255500
      5 C13         -1.4500    -1.7900    -0.3350 ca         1 LTS      -0.068300
      6 C15          0.5890    -2.9560    -0.8820 ca         1 LTS      -0.031000
      7 C20         -3.0290     2.7290    -0.6680 cg         1 LTS       0.317800
      8 C24         -7.5920    -0.2430    -0.0020 ca         1 LTS      -0.278300
      9 C28         -6.6340     1.7380     0.9180 ca         1 LTS      -0.278300
     10 C1           4.9630    -0.6680    -1.9790 ca         1 LTS      -0.137000
     11 C2           5.1920     0.5080    -1.2810 ca         1 LTS      -0.067000
     12 C3           4.6970     0.6360     0.0060 ca         1 LTS       0.077100
     13 S7           2.8460    -2.8580     0.6560 sy         1 LTS       1.164600
     14 O8           3.1830    -4.1010    -0.0280 o          1 LTS      -0.588300
     15 O9           3.0230    -2.7480     2.0990 o          1 LTS      -0.588300
     16 C11          0.4530    -1.6270     1.1370 ca         1 LTS      -0.031000
     17 C12         -0.8540    -1.2980     0.8240 ca         1 LTS      -0.128500
     18 C14         -0.7220    -2.6160    -1.1820 ca         1 LTS      -0.128500
     19 C16         -2.8750    -1.4290    -0.6580 c3         1 LTS       0.263100
     20 N17         -3.0060     0.0140    -0.7530 nu         1 LTS      -0.898200
     21 C18         -4.1050     0.7380    -0.5100 c2         1 LTS       0.927100
     22 N19         -4.1330     2.0490    -0.5240 ne         1 LTS      -0.610700
     23 N21         -2.0940     3.4090    -0.7920 n1         1 LTS      -0.434800
     24 N22         -5.2460     0.0580    -0.2480 nu         1 LTS      -0.722600
     25 C23         -6.4640     0.5490     0.2130 ca         1 LTS       0.205600
     26 C25         -8.8150     0.1860     0.4790 ca         1 LTS       0.422200
     27 N26         -8.9910     1.3230     1.1440 nb         1 LTS      -0.673000
     28 C27         -7.9100     2.0650     1.3490 ca         1 LTS       0.422200
     29 O29          4.9690     1.7870     0.7290 os         1 LTS      -0.376900
     30 C30          4.0930     2.8000     0.6380 c3         1 LTS       0.855700
     31 F31          2.8640     2.4490     1.0170 f          1 LTS      -0.226300
     32 F32          4.5180     3.7680     1.4310 f          1 LTS      -0.226300
     33 F33          3.9950     3.2800    -0.6020 f          1 LTS      -0.226300
     34 H4           3.6420    -0.2730     1.6360 ha         1 LTS       0.173000
     35 H6           4.0750    -2.6180    -1.9510 ha         1 LTS       0.160000
     36 H15          1.1440    -3.6010    -1.5500 ha         1 LTS       0.160500
     37 H24         -7.5240    -1.1800    -0.5410 ha         1 LTS       0.155500
     38 H28         -5.8130     2.4010     1.1370 ha         1 LTS       0.155500
     39 H1           5.3500    -0.7810    -2.9820 ha         1 LTS       0.148000
     40 H2           5.7650     1.3080    -1.7310 ha         1 LTS       0.159000
     41 H11          0.8990    -1.2480     2.0460 ha         1 LTS       0.160500
     42 H12         -1.4140    -0.6590     1.4950 ha         1 LTS       0.144000
     43 H14         -1.1770    -3.0020    -2.0850 ha         1 LTS       0.144000
     44 H16         -3.1890    -1.9170    -1.5830 h1         1 LTS       0.055700
     45 H16A        -3.5160    -1.7970     0.1450 h1         1 LTS       0.055700
     46 HN17        -2.2270     0.5040    -1.1690 hn         1 LTS       0.465800
     47 HN22        -5.2730    -0.9090    -0.5320 hn         1 LTS       0.444800
     48 H25         -9.6950    -0.4230     0.3110 h4         1 LTS       0.022100
     49 H27         -8.0540     2.9880     1.8990 h4         1 LTS       0.022100
@<TRIPOS>BOND
     1     1     2 ar  
     2     1    12 ar  
     3     1    34 1   
     4     2     3 ar  
     5     2    13 1   
     6     3    10 ar  
     7     3    35 1   
     8     4     6 ar  
     9     4    13 1   
    10     4    16 ar  
    11     5    17 ar  
    12     5    18 ar  
    13     5    19 1   
    14     6    18 ar  
    15     6    36 1   
    16     7    22 1   
    17     7    23 3   
    18     8    25 ar  
    19     8    26 ar  
    20     8    37 1   
    21     9    25 ar  
    22     9    28 ar  
    23     9    38 1   
    24    10    11 ar  
    25    10    39 1   
    26    11    12 ar  
    27    11    40 1   
    28    12    29 1   
    29    13    14 2   
    30    13    15 2   
    31    16    17 ar  
    32    16    41 1   
    33    17    42 1   
    34    18    43 1   
    35    19    20 1   
    36    19    44 1   
    37    19    45 1   
    38    20    21 1   
    39    20    46 1   
    40    21    22 2   
    41    21    24 1   
    42    24    25 1   
    43    24    47 1   
    44    26    27 ar  
    45    26    48 1   
    46    27    28 ar  
    47    28    49 1   
    48    29    30 1   
    49    30    31 1   
    50    30    32 1   
    51    30    33 1   
@<TRIPOS>SUBSTRUCTURE
     1 LTS         1 TEMP              0 ****  ****    0 ROOT
