@<TRIPOS>MOLECULE
LTS
   49    51     1     0     0
SMALL
No Charge or Current Charge


@<TRIPOS>ATOM
      1 C4           2.4130     0.3490     0.3030 ca         1 LTS      -0.009000
      2 C5           3.1320    -0.8340     0.0220 ca         1 LTS      -0.256500
      3 C6           4.1240    -0.8340    -0.9790 ca         1 LTS      -0.007000
      4 C10          0.9890    -2.5840     0.5270 ca         1 LTS      -0.255500
      5 C13         -1.7320    -2.8410    -0.1820 ca         1 LTS      -0.068300
      6 C15          0.6310    -3.1530    -0.7110 ca         1 LTS      -0.013000
      7 C20         -1.5940     0.1310    -2.2980 cg         1 LTS       0.407000
      8 C24         -6.1810     1.2880     0.3220 ca         1 LTS      -0.195000
      9 C28         -3.9540     1.8670     1.0110 ca         1 LTS      -0.195000
     10 C1           4.3980     0.3470    -1.6890 ca         1 LTS      -0.119000
     11 C2           3.6800     1.5230    -1.4110 ca         1 LTS      -0.049000
     12 C3           2.6820     1.5350    -0.4210 ca         1 LTS       0.077100
     13 S7           2.7310    -2.3410     0.9290 sy         1 LTS       1.023000
     14 O8           3.5050    -3.4450     0.3440 o          1 LTS      -0.517500
     15 O9           2.8180    -2.0280     2.3620 o          1 LTS      -0.517500
     16 C11         -0.0180    -2.1520     1.4160 ca         1 LTS      -0.013000
     17 C12         -1.3710    -2.2820     1.0600 ca         1 LTS      -0.110500
     18 C14         -0.7240    -3.2810    -1.0610 ca         1 LTS      -0.110500
     19 C16         -3.1970    -2.9120    -0.5920 c3         1 LTS       0.263100
     20 N17         -3.5510    -1.7330    -1.3970 nu         1 LTS      -0.953400
     21 C18         -3.3370    -0.4900    -0.9350 c2         1 LTS       0.927100
     22 N19         -2.5390     0.3850    -1.4140 ne         1 LTS      -0.610700
     23 N21         -0.8560    -0.0780    -3.1740 n1         1 LTS      -0.524000
     24 N22         -4.3670    -0.2300    -0.1350 nu         1 LTS      -0.916200
     25 C23         -4.8230     0.9690     0.3860 ca         1 LTS       0.344000
     26 C25         -6.6170     2.5010     0.8680 ca         1 LTS       0.356900
     27 N26         -5.7820     3.3810     1.4650 nb         1 LTS      -0.673000
     28 C27         -4.4700     3.0590     1.5310 ca         1 LTS       0.356900
     29 O29          2.0050     2.7260    -0.2160 os         1 LTS      -0.400100
     30 C30          0.9150     2.8890     0.7150 c3         1 LTS       0.515000
     31 F31          1.3000     2.6640     1.9930 f          1 LTS      -0.105000
     32 F32          0.4300     4.1490     0.6680 f          1 LTS      -0.105000
     33 F33         -0.1180     2.0590     0.4400 f          1 LTS      -0.105000
     34 H4           1.6500     0.3250     1.0750 ha         1 LTS       0.155000
     35 H6           4.6840    -1.7380    -1.2120 ha         1 LTS       0.142000
     36 H15          1.3970    -3.4780    -1.4130 ha         1 LTS       0.142500
     37 H24         -6.8930     0.6170    -0.1460 ha         1 LTS       0.137500
     38 H28         -2.8950     1.6510     1.0980 ha         1 LTS       0.137500
     39 H1           5.1650     0.3490    -2.4600 ha         1 LTS       0.130000
     40 H2           3.8920     2.4310    -1.9700 ha         1 LTS       0.141000
     41 H11          0.2370    -1.7020     2.3740 ha         1 LTS       0.142500
     42 H12         -2.1400    -1.9280     1.7430 ha         1 LTS       0.126000
     43 H14         -0.9890    -3.7040    -2.0270 ha         1 LTS       0.126000
     44 H16         -3.3730    -3.8310    -1.1670 h1         1 LTS       0.055700
     45 H16A        -3.8260    -2.9650     0.3080 h1         1 LTS       0.055700
     46 HN17        -3.2490    -1.7990    -2.3640 hn         1 LTS       0.521000
     47 HN22        -5.0680    -0.9340    -0.3070 hn         1 LTS       0.500000
     48 H25         -7.6700     2.7810     0.8290 h4         1 LTS       0.022100
     49 H27         -3.8170     3.7800     2.0210 h4         1 LTS       0.022100
@<TRIPOS>BOND
     1     1     2 ar  
     2     1    12 ar  
     3     1    34 1   
     4     2     3 ar  
     5     2    13 1   
     6     3    10 ar  
     7     3    35 1   
     8     4     6 ar  
     9     4    13 1   
    10     4    16 ar  
    11     5    17 ar  
    12     5    18 ar  
    13     5    19 1   
    14     6    18 ar  
    15     6    36 1   
    16     7    22 1   
    17     7    23 3   
    18     8    25 ar  
    19     8    26 ar  
    20     8    37 1   
    21     9    25 ar  
    22     9    28 ar  
    23     9    38 1   
    24    10    11 ar  
    25    10    39 1   
    26    11    12 ar  
    27    11    40 1   
    28    12    29 1   
    29    13    14 2   
    30    13    15 2   
    31    16    17 ar  
    32    16    41 1   
    33    17    42 1   
    34    18    43 1   
    35    19    20 1   
    36    19    44 1   
    37    19    45 1   
    38    20    21 1   
    39    20    46 1   
    40    21    22 2   
    41    21    24 1   
    42    24    25 1   
    43    24    47 1   
    44    26    27 ar  
    45    26    48 1   
    46    27    28 ar  
    47    28    49 1   
    48    29    30 1   
    49    30    31 1   
    50    30    32 1   
    51    30    33 1   
@<TRIPOS>SUBSTRUCTURE
     1 LTS         1 TEMP              0 ****  ****    0 ROOT
