@<TRIPOS>MOLECULE
LTT
   26    27     1     0     0
SMALL
No Charge or Current Charge


@<TRIPOS>ATOM
      1 O1           3.2800     1.4070    -2.0130 o          1 LTT      -0.567000
      2 C1           2.2530     2.0620    -1.9570 c          1 LTT       0.709400
      3 N2           1.8690     2.7990    -3.0440 nc         1 LTT      -0.772100
      4 C3           0.7760     3.4810    -3.0100 cd         1 LTT       0.786500
      5 N3           0.4960     4.1470    -4.1110 nv         1 LTT      -1.034200
      6 C5          -0.1020     3.5300    -1.9110 cd         1 LTT      -0.496600
      7 C7           0.2480     2.8080    -0.7940 cc         1 LTT       0.031600
      8 N1           1.4340     2.0780    -0.8110 n          1 LTT      -0.342000
      9 C4           1.8170     1.2140     0.3390 c5         1 LTT       0.302700
     10 O3           1.6640     1.8820     1.6130 os         1 LTT      -0.457000
     11 C2           0.9560     0.9770     2.5090 c5         1 LTT       0.378300
     12 C8          -0.5190     1.4480     2.7520 c3         1 LTT       0.105600
     13 O4          -0.5880     2.6710     3.5190 oh         1 LTT      -0.713000
     14 O2           0.9600    -0.3040     1.8350 os         1 LTT      -0.454000
     15 C6           0.8830    -0.0170     0.4240 c5         1 LTT       0.120600
     16 HN31        -0.4860     4.3270    -4.2720 hn         1 LTT       0.502000
     17 HN32         1.0240     3.8410    -4.9170 hn         1 LTT       0.502000
     18 H5          -1.0070     4.1250    -1.9420 ha         1 LTT       0.202000
     19 H7          -0.3020     2.7610     0.1420 h4         1 LTT       0.229000
     20 H4           2.8590     0.8920     0.2240 h2         1 LTT       0.111700
     21 H2           1.4760     0.9010     3.4730 h2         1 LTT       0.109700
     22 H81         -1.0380     0.6450     3.2920 h1         1 LTT       0.036700
     23 H82         -1.0340     1.5690     1.7910 h1         1 LTT       0.036700
     24 HO4         -1.5430     2.8770     3.6610 ho         1 LTT       0.508000
     25 H61         -0.1540     0.2100     0.1400 h1         1 LTT       0.082200
     26 H62          1.2430    -0.8700    -0.1650 h1         1 LTT       0.082200
@<TRIPOS>BOND
     1     1     2 2   
     2     2     3 1   
     3     2     8 1   
     4     3     4 2   
     5     4     5 1   
     6     4     6 1   
     7     5    16 1   
     8     5    17 1   
     9     6     7 2   
    10     6    18 1   
    11     7     8 1   
    12     7    19 1   
    13     8     9 1   
    14     9    10 1   
    15     9    15 1   
    16     9    20 1   
    17    10    11 1   
    18    11    12 1   
    19    11    14 1   
    20    11    21 1   
    21    12    13 1   
    22    12    22 1   
    23    12    23 1   
    24    13    24 1   
    25    14    15 1   
    26    15    25 1   
    27    15    26 1   
@<TRIPOS>SUBSTRUCTURE
     1 LTT         1 TEMP              0 ****  ****    0 ROOT
