@<TRIPOS>MOLECULE
LTT
   26    27     1     0     0
SMALL
abcg2


@<TRIPOS>ATOM
      1 O1           2.4640     0.6330    -2.0110 o          1 LTT      -0.567000
      2 C1           1.7470     1.6240    -1.9120 c          1 LTT       0.709400
      3 N2           1.2740     2.3020    -2.9720 nc         1 LTT      -0.772100
      4 C3           0.5120     3.3670    -2.8040 cd         1 LTT       0.786500
      5 N3           0.0660     4.0000    -3.8890 nv         1 LTT      -1.034200
      6 C5           0.1610     3.8520    -1.5080 cd         1 LTT      -0.496600
      7 C7           0.6430     3.1640    -0.4510 cc         1 LTT       0.031600
      8 N1           1.4080     2.0640    -0.6270 n          1 LTT      -0.342000
      9 C4           2.0030     1.3130     0.4910 c5         1 LTT       0.302700
     10 O3           1.6570     1.8830     1.7110 os         1 LTT      -0.457000
     11 C2           0.7860     1.0040     2.4000 c5         1 LTT       0.378300
     12 C8          -0.6800     1.3430     2.1780 c3         1 LTT       0.105600
     13 O4          -0.8780     2.6670     2.6120 oh         1 LTT      -0.713000
     14 O2           1.0980    -0.2690     1.9350 os         1 LTT      -0.454000
     15 C6           1.4790    -0.1350     0.5780 c5         1 LTT       0.120600
     16 HN31        -0.5140     4.8170    -3.8210 hn         1 LTT       0.502000
     17 HN32         0.3060     3.6640    -4.8060 hn         1 LTT       0.502000
     18 H5          -0.4550     4.7260    -1.3680 ha         1 LTT       0.202000
     19 H7           0.4290     3.4620     0.5640 h4         1 LTT       0.229000
     20 H4           3.0870     1.3550     0.3730 h2         1 LTT       0.111700
     21 H2           1.0260     1.0670     3.4650 h2         1 LTT       0.109700
     22 H81         -1.2760     0.6270     2.7570 h1         1 LTT       0.036700
     23 H82         -0.9570     1.2090     1.1230 h1         1 LTT       0.036700
     24 HO4         -1.8060     2.8880     2.4890 ho         1 LTT       0.508000
     25 H61          0.6350    -0.2970    -0.0990 h1         1 LTT       0.082200
     26 H62          2.2520    -0.8680     0.3580 h1         1 LTT       0.082200
@<TRIPOS>BOND
     1     1     2 2   
     2     2     3 1   
     3     2     8 1   
     4     3     4 2   
     5     4     5 1   
     6     4     6 1   
     7     5    16 1   
     8     5    17 1   
     9     6     7 2   
    10     6    18 1   
    11     7     8 1   
    12     7    19 1   
    13     8     9 1   
    14     9    10 1   
    15     9    15 1   
    16     9    20 1   
    17    10    11 1   
    18    11    12 1   
    19    11    14 1   
    20    11    21 1   
    21    12    13 1   
    22    12    22 1   
    23    12    23 1   
    24    13    24 1   
    25    14    15 1   
    26    15    25 1   
    27    15    26 1   
@<TRIPOS>SUBSTRUCTURE
     1 LTT         1 TEMP              0 ****  ****    0 ROOT
