@<TRIPOS>MOLECULE
LTV
  141   140     1     0     0
SMALL
No Charge or Current Charge


@<TRIPOS>ATOM
      1 O4           6.2720     0.2520    13.9640 o          1 LTV      -0.496000
      2 C21          7.2070    -0.3450    13.4560 c          1 LTV       0.589100
      3 O3           8.1790    -1.0190    14.1520 os         1 LTV      -0.434100
      4 C20          8.1070    -1.0690    15.5920 c3         1 LTV       0.167600
      5 C19          8.4600     0.3090    16.2280 c3         1 LTV       0.140300
      6 O2           8.3580     0.1960    17.6610 oh         1 LTV      -0.658000
      7 C18          9.8810     0.8160    15.8510 c3         1 LTV       0.134600
      8 O1           9.7890     1.6690    14.6920 os         1 LTV      -0.447100
      9 C17         10.9500     2.2120    14.2050 c          1 LTV       0.590100
     10 O           12.0660     1.9500    14.6330 o          1 LTV      -0.487000
     11 C16         10.7060     3.0610    12.9540 c3         1 LTV      -0.137400
     12 C15         10.9290     4.5720    13.2140 c3         1 LTV      -0.066400
     13 C14         10.8470     5.4550    11.9380 c3         1 LTV      -0.074400
     14 C13          9.5270     5.3510    11.1310 c3         1 LTV      -0.078400
     15 C12          8.2760     5.8540    11.8940 c3         1 LTV      -0.076400
     16 C11          6.9250     5.5350    11.2100 c3         1 LTV      -0.072400
     17 C10          6.5970     4.0240    11.1830 c3         1 LTV      -0.083400
     18 C9           5.1510     3.6980    10.7590 c3         1 LTV      -0.075400
     19 C8           4.8300     2.1940    10.9110 c3         1 LTV      -0.078400
     20 C7           3.3840     1.8000    10.5260 c3         1 LTV      -0.072400
     21 C6           3.0200     1.9640     9.0270 c3         1 LTV      -0.072400
     22 C5           3.9000     1.1700     8.0280 c3         1 LTV      -0.074400
     23 C4           3.9090    -0.3600     8.2590 c3         1 LTV      -0.077400
     24 C3           4.6880    -1.1300     7.1680 c3         1 LTV      -0.074400
     25 C2           4.8050    -2.6520     7.4230 c3         1 LTV      -0.076400
     26 C1           3.4680    -3.4230     7.3550 c3         1 LTV      -0.076400
     27 C            3.6430    -4.9400     7.5650 c3         1 LTV      -0.090100
     28 C22          7.4230    -0.4570    11.9500 c3         1 LTV      -0.139400
     29 C23          8.4450     0.5740    11.4260 c3         1 LTV      -0.066400
     30 C24          8.7740     0.4720     9.9130 c3         1 LTV      -0.078400
     31 C25          9.2400    -0.9340     9.4430 c3         1 LTV      -0.079400
     32 C26          8.0980    -1.8110     8.8620 c3         1 LTV      -0.079400
     33 C27          8.3050    -3.3450     8.9990 c3         1 LTV      -0.076400
     34 C28          8.0990    -3.9220    10.4270 c3         1 LTV      -0.077400
     35 C29          6.6280    -3.8810    10.9260 c3         1 LTV      -0.078400
     36 C30          6.4470    -4.0740    12.4500 c3         1 LTV      -0.075400
     37 C31          6.8820    -5.4540    12.9890 c3         1 LTV      -0.074400
     38 C32          6.6490    -5.6390    14.5100 c3         1 LTV      -0.073400
     39 C33          5.1610    -5.5670    14.9490 c3         1 LTV      -0.073400
     40 C34          4.7290    -4.2510    15.6490 c3         1 LTV      -0.077400
     41 C35          5.2620    -4.1160    17.0990 c3         1 LTV      -0.071400
     42 C36          4.5190    -3.0670    17.9610 c3         1 LTV      -0.074400
     43 C37          4.8640    -1.5880    17.6630 c3         1 LTV      -0.078400
     44 C38          4.0340    -0.6170    18.5360 c3         1 LTV      -0.070400
     45 C39          4.5100     0.8550    18.5350 c3         1 LTV      -0.068400
     46 C40          4.3880     1.5940    17.1810 c3         1 LTV      -0.085400
     47 C41          4.6280     3.1170    17.3320 c3         1 LTV      -0.072400
     48 C42          4.4640     3.9410    16.0300 c3         1 LTV      -0.069400
     49 C43          5.5070     3.6680    14.9180 c3         1 LTV      -0.077400
     50 C44          6.9860     3.9200    15.3060 c3         1 LTV      -0.074400
     51 C45          7.3010     5.3800    15.6900 c3         1 LTV      -0.091100
     52 H1           7.1060    -1.3800    15.9130 h1         1 LTV       0.076200
     53 H2           8.8160    -1.8160    15.9710 h1         1 LTV       0.076200
     54 H3           7.7270     1.0470    15.8790 h1         1 LTV       0.064700
     55 H4           8.3530     1.1060    18.0310 ho         1 LTV       0.451000
     56 H5          10.5390    -0.0420    15.6570 h1         1 LTV       0.055200
     57 H6          10.3040     1.3810    16.6930 h1         1 LTV       0.055200
     58 H7           9.6690     2.9240    12.6340 hc         1 LTV       0.072700
     59 H8          11.3930     2.7300    12.1680 hc         1 LTV       0.072700
     60 H9          11.9220     4.7110    13.6610 hc         1 LTV       0.054200
     61 H10         10.2090     4.9240    13.9630 hc         1 LTV       0.054200
     62 H11         11.6780     5.1840    11.2750 hc         1 LTV       0.041700
     63 H12         11.0100     6.5020    12.2210 hc         1 LTV       0.041700
     64 H13          9.6310     5.9400    10.2120 hc         1 LTV       0.037700
     65 H14          9.3890     4.3140    10.8080 hc         1 LTV       0.037700
     66 H15          8.2560     5.4210    12.8980 hc         1 LTV       0.039700
     67 H16          8.3590     6.9390    12.0280 hc         1 LTV       0.039700
     68 H17          6.9210     5.9340    10.1880 hc         1 LTV       0.039200
     69 H18          6.1330     6.0590    11.7590 hc         1 LTV       0.039200
     70 H19          6.7750     3.6040    12.1790 hc         1 LTV       0.036700
     71 H20          7.2820     3.5150    10.4950 hc         1 LTV       0.036700
     72 H21          5.0050     4.0110     9.7180 hc         1 LTV       0.038700
     73 H22          4.4510     4.2770    11.3740 hc         1 LTV       0.038700
     74 H23          4.9910     1.9090    11.9570 hc         1 LTV       0.037200
     75 H24          5.5430     1.6070    10.3200 hc         1 LTV       0.037200
     76 H25          2.6860     2.3990    11.1230 hc         1 LTV       0.039200
     77 H26          3.2140     0.7580    10.8240 hc         1 LTV       0.039200
     78 H27          3.0580     3.0270     8.7610 hc         1 LTV       0.037700
     79 H28          1.9760     1.6570     8.8910 hc         1 LTV       0.037700
     80 H29          4.9280     1.5500     8.0580 hc         1 LTV       0.036200
     81 H30          3.5300     1.3700     7.0150 hc         1 LTV       0.036200
     82 H31          2.8730    -0.7180     8.2930 hc         1 LTV       0.038200
     83 H32          4.3600    -0.5800     9.2340 hc         1 LTV       0.038200
     84 H33          5.7000    -0.7120     7.1000 hc         1 LTV       0.036200
     85 H34          4.2150    -0.9620     6.1930 hc         1 LTV       0.036200
     86 H35          5.2610    -2.8170     8.4040 hc         1 LTV       0.037200
     87 H36          5.4950    -3.0740     6.6810 hc         1 LTV       0.037200
     88 H37          2.9940    -3.2490     6.3810 hc         1 LTV       0.037700
     89 H38          2.7800    -3.0440     8.1200 hc         1 LTV       0.037700
     90 H39          2.6730    -5.4480     7.5120 hc         1 LTV       0.031367
     91 H40          4.2970    -5.3650     6.7950 hc         1 LTV       0.031367
     92 H41          4.0860    -5.1460     8.5480 hc         1 LTV       0.031367
     93 H42          6.4680    -0.3500    11.4250 hc         1 LTV       0.077200
     94 H43          7.8670    -1.4340    11.7670 hc         1 LTV       0.077200
     95 H44          9.3780     0.4610    11.9920 hc         1 LTV       0.050200
     96 H45          8.0680     1.5790    11.6410 hc         1 LTV       0.050200
     97 H46          9.5710     1.1930     9.6970 hc         1 LTV       0.041700
     98 H47          7.9060     0.7950     9.3230 hc         1 LTV       0.041700
     99 H48         10.0030    -0.8130     8.6630 hc         1 LTV       0.040200
    100 H49          9.7430    -1.4460    10.2710 hc         1 LTV       0.040200
    101 H50          7.1420    -1.5220     9.3090 hc         1 LTV       0.038700
    102 H51          8.0000    -1.5700     7.7960 hc         1 LTV       0.038700
    103 H52          7.6170    -3.8570     8.3160 hc         1 LTV       0.040700
    104 H53          9.3170    -3.5950     8.6560 hc         1 LTV       0.040700
    105 H54          8.4340    -4.9660    10.4280 hc         1 LTV       0.037700
    106 H55          8.7530    -3.3990    11.1320 hc         1 LTV       0.037700
    107 H56          6.1700    -2.9200    10.6730 hc         1 LTV       0.037200
    108 H57          6.0460    -4.6420    10.3910 hc         1 LTV       0.037200
    109 H58          7.0000    -3.2960    12.9860 hc         1 LTV       0.041700
    110 H59          5.3870    -3.9150    12.6790 hc         1 LTV       0.041700
    111 H60          6.3460    -6.2410    12.4450 hc         1 LTV       0.034700
    112 H61          7.9490    -5.6010    12.7830 hc         1 LTV       0.034700
    113 H62          7.0440    -6.6230    14.7920 hc         1 LTV       0.037700
    114 H63          7.2460    -4.9030    15.0630 hc         1 LTV       0.037700
    115 H64          4.5160    -5.7340    14.0780 hc         1 LTV       0.035200
    116 H65          4.9540    -6.4060    15.6260 hc         1 LTV       0.035200
    117 H66          5.0430    -3.3840    15.0550 hc         1 LTV       0.041200
    118 H67          3.6330    -4.2320    15.6760 hc         1 LTV       0.041200
    119 H68          5.1540    -5.0870    17.5990 hc         1 LTV       0.035700
    120 H69          6.3360    -3.8920    17.0850 hc         1 LTV       0.035700
    121 H70          4.7560    -3.2660    19.0130 hc         1 LTV       0.033700
    122 H71          3.4370    -3.2170    17.8580 hc         1 LTV       0.033700
    123 H72          4.6940    -1.3670    16.6030 hc         1 LTV       0.046200
    124 H73          5.9300    -1.4290    17.8670 hc         1 LTV       0.046200
    125 H74          4.0600    -0.9710    19.5740 hc         1 LTV       0.033700
    126 H75          2.9830    -0.6580    18.2230 hc         1 LTV       0.033700
    127 H76          5.5520     0.8980    18.8770 hc         1 LTV       0.029200
    128 H77          3.9170     1.3950    19.2830 hc         1 LTV       0.029200
    129 H78          3.3860     1.4280    16.7660 hc         1 LTV       0.048700
    130 H79          5.1070     1.1700    16.4710 hc         1 LTV       0.048700
    131 H80          5.6220     3.2920    17.7600 hc         1 LTV       0.031200
    132 H81          3.9120     3.5080    18.0650 hc         1 LTV       0.031200
    133 H82          4.4890     5.0070    16.2860 hc         1 LTV       0.035700
    134 H83          3.4630     3.7560    15.6220 hc         1 LTV       0.035700
    135 H84          5.2610     4.2950    14.0530 hc         1 LTV       0.041200
    136 H85          5.4000     2.6330    14.5770 hc         1 LTV       0.041200
    137 H86          7.6220     3.6350    14.4600 hc         1 LTV       0.034700
    138 H87          7.2740     3.2640    16.1350 hc         1 LTV       0.034700
    139 H88          8.3800     5.5080    15.8410 hc         1 LTV       0.030700
    140 H89          6.9810     6.0690    14.8990 hc         1 LTV       0.030700
    141 H90          6.7940     5.6590    16.6200 hc         1 LTV       0.030700
@<TRIPOS>BOND
     1     1     2 2   
     2     2     3 1   
     3     2    28 1   
     4     3     4 1   
     5     4     5 1   
     6     4    52 1   
     7     4    53 1   
     8     5     6 1   
     9     5     7 1   
    10     5    54 1   
    11     6    55 1   
    12     7     8 1   
    13     7    56 1   
    14     7    57 1   
    15     8     9 1   
    16     9    10 2   
    17     9    11 1   
    18    11    12 1   
    19    11    58 1   
    20    11    59 1   
    21    12    13 1   
    22    12    60 1   
    23    12    61 1   
    24    13    14 1   
    25    13    62 1   
    26    13    63 1   
    27    14    15 1   
    28    14    64 1   
    29    14    65 1   
    30    15    16 1   
    31    15    66 1   
    32    15    67 1   
    33    16    17 1   
    34    16    68 1   
    35    16    69 1   
    36    17    18 1   
    37    17    70 1   
    38    17    71 1   
    39    18    19 1   
    40    18    72 1   
    41    18    73 1   
    42    19    20 1   
    43    19    74 1   
    44    19    75 1   
    45    20    21 1   
    46    20    76 1   
    47    20    77 1   
    48    21    22 1   
    49    21    78 1   
    50    21    79 1   
    51    22    23 1   
    52    22    80 1   
    53    22    81 1   
    54    23    24 1   
    55    23    82 1   
    56    23    83 1   
    57    24    25 1   
    58    24    84 1   
    59    24    85 1   
    60    25    26 1   
    61    25    86 1   
    62    25    87 1   
    63    26    27 1   
    64    26    88 1   
    65    26    89 1   
    66    27    90 1   
    67    27    91 1   
    68    27    92 1   
    69    28    29 1   
    70    28    93 1   
    71    28    94 1   
    72    29    30 1   
    73    29    95 1   
    74    29    96 1   
    75    30    31 1   
    76    30    97 1   
    77    30    98 1   
    78    31    32 1   
    79    31    99 1   
    80    31   100 1   
    81    32    33 1   
    82    32   101 1   
    83    32   102 1   
    84    33    34 1   
    85    33   103 1   
    86    33   104 1   
    87    34    35 1   
    88    34   105 1   
    89    34   106 1   
    90    35    36 1   
    91    35   107 1   
    92    35   108 1   
    93    36    37 1   
    94    36   109 1   
    95    36   110 1   
    96    37    38 1   
    97    37   111 1   
    98    37   112 1   
    99    38    39 1   
   100    38   113 1   
   101    38   114 1   
   102    39    40 1   
   103    39   115 1   
   104    39   116 1   
   105    40    41 1   
   106    40   117 1   
   107    40   118 1   
   108    41    42 1   
   109    41   119 1   
   110    41   120 1   
   111    42    43 1   
   112    42   121 1   
   113    42   122 1   
   114    43    44 1   
   115    43   123 1   
   116    43   124 1   
   117    44    45 1   
   118    44   125 1   
   119    44   126 1   
   120    45    46 1   
   121    45   127 1   
   122    45   128 1   
   123    46    47 1   
   124    46   129 1   
   125    46   130 1   
   126    47    48 1   
   127    47   131 1   
   128    47   132 1   
   129    48    49 1   
   130    48   133 1   
   131    48   134 1   
   132    49    50 1   
   133    49   135 1   
   134    49   136 1   
   135    50    51 1   
   136    50   137 1   
   137    50   138 1   
   138    51   139 1   
   139    51   140 1   
   140    51   141 1   
@<TRIPOS>SUBSTRUCTURE
     1 LTV         1 TEMP              0 ****  ****    0 ROOT
