@<TRIPOS>MOLECULE
LTV
  141   140     1     0     0
SMALL
abcg2


@<TRIPOS>ATOM
      1 O4           6.8120    -0.5980    14.6640 o          1 LTV      -0.496000
      2 C21          7.8290    -0.3400    14.0570 c          1 LTV       0.589100
      3 O3           9.0300    -0.2430    14.6470 os         1 LTV      -0.434100
      4 C20          9.0990    -0.4750    16.0660 c3         1 LTV       0.167600
      5 C19          8.7610     0.7690    16.8820 c3         1 LTV       0.140300
      6 O2           8.7230     0.3100    18.2320 oh         1 LTV      -0.658000
      7 C18          9.7870     1.8910    16.7900 c3         1 LTV       0.134600
      8 O1           9.7990     2.4040    15.4460 os         1 LTV      -0.447100
      9 C17         10.6040     3.4470    15.1890 c          1 LTV       0.590100
     10 O           11.2460     4.0120    16.0470 o          1 LTV      -0.487000
     11 C16         10.6100     3.7720    13.7190 c3         1 LTV      -0.137400
     12 C15         11.0870     5.1810    13.3860 c3         1 LTV      -0.066400
     13 C14         11.2780     5.4050    11.8810 c3         1 LTV      -0.074400
     14 C13         10.0580     5.0810    11.0120 c3         1 LTV      -0.078400
     15 C12          8.8130     5.8980    11.3560 c3         1 LTV      -0.076400
     16 C11          7.5670     5.5130    10.5530 c3         1 LTV      -0.072400
     17 C10          7.1560     4.0530    10.7490 c3         1 LTV      -0.083400
     18 C9           5.7330     3.7310    10.3030 c3         1 LTV      -0.075400
     19 C8           5.3580     2.2710    10.5590 c3         1 LTV      -0.078400
     20 C7           3.8840     1.9450    10.3160 c3         1 LTV      -0.072400
     21 C6           3.4340     2.0390     8.8530 c3         1 LTV      -0.072400
     22 C5           4.1060     1.0410     7.9040 c3         1 LTV      -0.074400
     23 C4           3.8310    -0.4230     8.2450 c3         1 LTV      -0.077400
     24 C3           4.3280    -1.3920     7.1730 c3         1 LTV      -0.074400
     25 C2           4.0360    -2.8650     7.4730 c3         1 LTV      -0.076400
     26 C1           2.5570    -3.2430     7.4220 c3         1 LTV      -0.076400
     27 C            2.3250    -4.7300     7.6860 c3         1 LTV      -0.090100
     28 C22          7.8840    -0.1620    12.5630 c3         1 LTV      -0.139400
     29 C23          9.0760     0.6070    11.9970 c3         1 LTV      -0.066400
     30 C24          9.1110     0.6570    10.4660 c3         1 LTV      -0.078400
     31 C25          9.1050    -0.7240     9.7890 c3         1 LTV      -0.079400
     32 C26          7.7190    -1.1800     9.3130 c3         1 LTV      -0.079400
     33 C27          7.6200    -2.6920     9.0880 c3         1 LTV      -0.076400
     34 C28          7.5020    -3.4990    10.3880 c3         1 LTV      -0.077400
     35 C29          6.1340    -3.3640    11.0650 c3         1 LTV      -0.078400
     36 C30          6.0950    -3.8260    12.5240 c3         1 LTV      -0.075400
     37 C31          6.4680    -5.2930    12.7330 c3         1 LTV      -0.074400
     38 C32          6.3930    -5.7660    14.1880 c3         1 LTV      -0.073400
     39 C33          4.9760    -5.7420    14.7980 c3         1 LTV      -0.073400
     40 C34          4.6540    -4.5350    15.6870 c3         1 LTV      -0.077400
     41 C35          5.4040    -4.5350    17.0210 c3         1 LTV      -0.071400
     42 C36          4.8970    -3.4930    18.0200 c3         1 LTV      -0.074400
     43 C37          5.1610    -2.0400    17.6270 c3         1 LTV      -0.078400
     44 C38          4.5640    -1.0490    18.6270 c3         1 LTV      -0.070400
     45 C39          4.9110     0.4180    18.3670 c3         1 LTV      -0.068400
     46 C40          4.4300     0.9630    17.0220 c3         1 LTV      -0.085400
     47 C41          4.5870     2.4800    16.9160 c3         1 LTV      -0.072400
     48 C42          4.1290     3.0730    15.5800 c3         1 LTV      -0.069400
     49 C43          4.9800     2.6810    14.3650 c3         1 LTV      -0.077400
     50 C44          6.4550     3.0790    14.4600 c3         1 LTV      -0.074400
     51 C45          6.6870     4.5850    14.5430 c3         1 LTV      -0.091100
     52 H1           8.4120    -1.2730    16.3410 h1         1 LTV       0.076200
     53 H2          10.1250    -0.7880    16.2560 h1         1 LTV       0.076200
     54 H3           7.7820     1.1420    16.5750 h1         1 LTV       0.064700
     55 H4           8.3610     1.0120    18.7880 ho         1 LTV       0.451000
     56 H5          10.7810     1.5230    17.0480 h1         1 LTV       0.055200
     57 H6           9.5170     2.6910    17.4810 h1         1 LTV       0.055200
     58 H7           9.6110     3.5820    13.3290 hc         1 LTV       0.072700
     59 H8          11.2610     3.0260    13.2470 hc         1 LTV       0.072700
     60 H9          12.0350     5.3700    13.8940 hc         1 LTV       0.054200
     61 H10         10.3730     5.9020    13.7900 hc         1 LTV       0.054200
     62 H11         12.1210     4.7930    11.5410 hc         1 LTV       0.041700
     63 H12         11.5700     6.4480    11.7220 hc         1 LTV       0.041700
     64 H13         10.3180     5.2490     9.9620 hc         1 LTV       0.037700
     65 H14          9.8320     4.0160    11.0970 hc         1 LTV       0.037700
     66 H15          8.5800     5.7780    12.4170 hc         1 LTV       0.039700
     67 H16          9.0340     6.9610    11.2090 hc         1 LTV       0.039700
     68 H17          7.7310     5.7110     9.4880 hc         1 LTV       0.039200
     69 H18          6.7400     6.1600    10.8630 hc         1 LTV       0.039200
     70 H19          7.2550     3.7990    11.8070 hc         1 LTV       0.036700
     71 H20          7.8530     3.4000    10.2180 hc         1 LTV       0.036700
     72 H21          5.6180     3.9730     9.2410 hc         1 LTV       0.038700
     73 H22          5.0330     4.3790    10.8430 hc         1 LTV       0.038700
     74 H23          5.5980     2.0320    11.5980 hc         1 LTV       0.037200
     75 H24          5.9910     1.6210     9.9490 hc         1 LTV       0.037200
     76 H25          3.2730     2.6270    10.9170 hc         1 LTV       0.039200
     77 H26          3.6760     0.9400    10.6920 hc         1 LTV       0.039200
     78 H27          3.6070     3.0550     8.4850 hc         1 LTV       0.037700
     79 H28          2.3510     1.8800     8.8100 hc         1 LTV       0.037700
     80 H29          5.1880     1.2120     7.8810 hc         1 LTV       0.036200
     81 H30          3.7470     1.2370     6.8880 hc         1 LTV       0.036200
     82 H31          2.7530    -0.5520     8.3920 hc         1 LTV       0.038200
     83 H32          4.3030    -0.6830     9.1980 hc         1 LTV       0.038200
     84 H33          5.4080    -1.2600     7.0560 hc         1 LTV       0.036200
     85 H34          3.8800    -1.1260     6.2090 hc         1 LTV       0.036200
     86 H35          4.4350    -3.1170     8.4610 hc         1 LTV       0.037200
     87 H36          4.5800    -3.4890     6.7570 hc         1 LTV       0.037200
     88 H37          2.1530    -2.9780     6.4390 hc         1 LTV       0.037700
     89 H38          1.9960    -2.6550     8.1540 hc         1 LTV       0.037700
     90 H39          1.2640    -4.9860     7.6340 hc         1 LTV       0.031367
     91 H40          2.8540    -5.3440     6.9530 hc         1 LTV       0.031367
     92 H41          2.6880    -5.0120     8.6780 hc         1 LTV       0.031367
     93 H42          6.9390     0.2920    12.2660 hc         1 LTV       0.077200
     94 H43          7.8690    -1.1800    12.1650 hc         1 LTV       0.077200
     95 H44          9.9990     0.1450    12.3530 hc         1 LTV       0.050200
     96 H45          9.0630     1.6250    12.3900 hc         1 LTV       0.050200
     97 H46         10.0080     1.2110    10.1780 hc         1 LTV       0.041700
     98 H47          8.2640     1.2400    10.0970 hc         1 LTV       0.041700
     99 H48          9.7770    -0.7180     8.9260 hc         1 LTV       0.040200
    100 H49          9.5220    -1.4620    10.4820 hc         1 LTV       0.040200
    101 H50          6.9580    -0.8700    10.0320 hc         1 LTV       0.038700
    102 H51          7.4740    -0.6500     8.3880 hc         1 LTV       0.038700
    103 H52          6.7560    -2.9140     8.4560 hc         1 LTV       0.040700
    104 H53          8.5010    -3.0260     8.5310 hc         1 LTV       0.040700
    105 H54          7.7000    -4.5520    10.1770 hc         1 LTV       0.037700
    106 H55          8.2850    -3.1840    11.0860 hc         1 LTV       0.037700
    107 H56          5.8100    -2.3200    11.0280 hc         1 LTV       0.037200
    108 H57          5.3940    -3.9270    10.4860 hc         1 LTV       0.037200
    109 H58          6.7720    -3.2000    13.1180 hc         1 LTV       0.041700
    110 H59          5.0910    -3.6470    12.9160 hc         1 LTV       0.041700
    111 H60          5.8080    -5.9200    12.1200 hc         1 LTV       0.034700
    112 H61          7.4830    -5.4650    12.3630 hc         1 LTV       0.034700
    113 H62          6.7850    -6.7860    14.2310 hc         1 LTV       0.037700
    114 H63          7.0710    -5.1590    14.7960 hc         1 LTV       0.037700
    115 H64          4.2450    -5.7940    13.9850 hc         1 LTV       0.035200
    116 H65          4.8230    -6.6460    15.3960 hc         1 LTV       0.035200
    117 H66          4.8540    -3.6090    15.1440 hc         1 LTV       0.041200
    118 H67          3.5790    -4.5390    15.9000 hc         1 LTV       0.041200
    119 H68          5.3060    -5.5290    17.4710 hc         1 LTV       0.035700
    120 H69          6.4750    -4.3810    16.8500 hc         1 LTV       0.035700
    121 H70          5.3590    -3.6790    18.9960 hc         1 LTV       0.033700
    122 H71          3.8180    -3.6350    18.1610 hc         1 LTV       0.033700
    123 H72          4.7560    -1.8450    16.6320 hc         1 LTV       0.046200
    124 H73          6.2420    -1.8780    17.5540 hc         1 LTV       0.046200
    125 H74          4.9030    -1.3170    19.6330 hc         1 LTV       0.033700
    126 H75          3.4740    -1.1640    18.6310 hc         1 LTV       0.033700
    127 H76          5.9950     0.5490    18.4380 hc         1 LTV       0.029200
    128 H77          4.4760     1.0260    19.1690 hc         1 LTV       0.029200
    129 H78          3.3730     0.7030    16.8820 hc         1 LTV       0.048700
    130 H79          4.9780     0.4760    16.2130 hc         1 LTV       0.048700
    131 H80          5.6330     2.7470    17.0990 hc         1 LTV       0.031200
    132 H81          4.0120     2.9470    17.7220 hc         1 LTV       0.031200
    133 H82          4.1100     4.1630    15.6670 hc         1 LTV       0.035700
    134 H83          3.0940     2.7680    15.3940 hc         1 LTV       0.035700
    135 H84          4.5450     3.1420    13.4720 hc         1 LTV       0.041200
    136 H85          4.9200     1.6010    14.2090 hc         1 LTV       0.041200
    137 H86          6.9820     2.6840    13.5880 hc         1 LTV       0.034700
    138 H87          6.9120     2.5950    15.3220 hc         1 LTV       0.034700
    139 H88          7.7530     4.8180    14.5650 hc         1 LTV       0.030700
    140 H89          6.2540     5.0950    13.6790 hc         1 LTV       0.030700
    141 H90          6.2380     5.0130    15.4420 hc         1 LTV       0.030700
@<TRIPOS>BOND
     1     1     2 2   
     2     2     3 1   
     3     2    28 1   
     4     3     4 1   
     5     4     5 1   
     6     4    52 1   
     7     4    53 1   
     8     5     6 1   
     9     5     7 1   
    10     5    54 1   
    11     6    55 1   
    12     7     8 1   
    13     7    56 1   
    14     7    57 1   
    15     8     9 1   
    16     9    10 2   
    17     9    11 1   
    18    11    12 1   
    19    11    58 1   
    20    11    59 1   
    21    12    13 1   
    22    12    60 1   
    23    12    61 1   
    24    13    14 1   
    25    13    62 1   
    26    13    63 1   
    27    14    15 1   
    28    14    64 1   
    29    14    65 1   
    30    15    16 1   
    31    15    66 1   
    32    15    67 1   
    33    16    17 1   
    34    16    68 1   
    35    16    69 1   
    36    17    18 1   
    37    17    70 1   
    38    17    71 1   
    39    18    19 1   
    40    18    72 1   
    41    18    73 1   
    42    19    20 1   
    43    19    74 1   
    44    19    75 1   
    45    20    21 1   
    46    20    76 1   
    47    20    77 1   
    48    21    22 1   
    49    21    78 1   
    50    21    79 1   
    51    22    23 1   
    52    22    80 1   
    53    22    81 1   
    54    23    24 1   
    55    23    82 1   
    56    23    83 1   
    57    24    25 1   
    58    24    84 1   
    59    24    85 1   
    60    25    26 1   
    61    25    86 1   
    62    25    87 1   
    63    26    27 1   
    64    26    88 1   
    65    26    89 1   
    66    27    90 1   
    67    27    91 1   
    68    27    92 1   
    69    28    29 1   
    70    28    93 1   
    71    28    94 1   
    72    29    30 1   
    73    29    95 1   
    74    29    96 1   
    75    30    31 1   
    76    30    97 1   
    77    30    98 1   
    78    31    32 1   
    79    31    99 1   
    80    31   100 1   
    81    32    33 1   
    82    32   101 1   
    83    32   102 1   
    84    33    34 1   
    85    33   103 1   
    86    33   104 1   
    87    34    35 1   
    88    34   105 1   
    89    34   106 1   
    90    35    36 1   
    91    35   107 1   
    92    35   108 1   
    93    36    37 1   
    94    36   109 1   
    95    36   110 1   
    96    37    38 1   
    97    37   111 1   
    98    37   112 1   
    99    38    39 1   
   100    38   113 1   
   101    38   114 1   
   102    39    40 1   
   103    39   115 1   
   104    39   116 1   
   105    40    41 1   
   106    40   117 1   
   107    40   118 1   
   108    41    42 1   
   109    41   119 1   
   110    41   120 1   
   111    42    43 1   
   112    42   121 1   
   113    42   122 1   
   114    43    44 1   
   115    43   123 1   
   116    43   124 1   
   117    44    45 1   
   118    44   125 1   
   119    44   126 1   
   120    45    46 1   
   121    45   127 1   
   122    45   128 1   
   123    46    47 1   
   124    46   129 1   
   125    46   130 1   
   126    47    48 1   
   127    47   131 1   
   128    47   132 1   
   129    48    49 1   
   130    48   133 1   
   131    48   134 1   
   132    49    50 1   
   133    49   135 1   
   134    49   136 1   
   135    50    51 1   
   136    50   137 1   
   137    50   138 1   
   138    51   139 1   
   139    51   140 1   
   140    51   141 1   
@<TRIPOS>SUBSTRUCTURE
     1 LTV         1 TEMP              0 ****  ****    0 ROOT
