@<TRIPOS>MOLECULE
LTW
   73    78     1     0     0
SMALL
No Charge or Current Charge


@<TRIPOS>ATOM
      1 C10         13.8790     9.8000    -4.9230 ca         1 LTW      -0.044000
      2 C13         14.3110     6.9870    -3.8900 c3         1 LTW      -0.195100
      3 C15         13.4800     8.9650    -7.1720 ca         1 LTW      -0.010000
      4 C17         13.3990    11.3650    -6.7330 ca         1 LTW       0.191100
      5 C20         13.1460    14.5650    -8.7000 c3         1 LTW       0.166800
      6 C22         11.9900    15.4470    -6.4990 cy         1 LTW       0.168300
      7 C24         11.6380    17.9650    -5.9320 cy         1 LTW       0.158100
      8 C26          9.9010    16.9230    -6.8520 cy         1 LTW       0.158100
      9 C02         16.8090    15.5840     0.5790 c          1 LTW       0.546600
     10 C04         14.7080    15.4060    -0.9010 ca         1 LTW      -0.029000
     11 C05         14.9830    14.2020    -1.5810 ca         1 LTW      -0.083000
     12 C06         14.0950    13.7080    -2.5610 ca         1 LTW      -0.129600
     13 C07         14.4280    12.4240    -3.2940 c          1 LTW       0.620700
     14 C09         13.6930    11.1230    -5.3770 ca         1 LTW      -0.102000
     15 C11         13.7790     8.7070    -5.8170 ca         1 LTW      -0.215600
     16 C12         13.9750     7.2760    -5.3550 c          1 LTW       0.590700
     17 C16         13.2900    10.2800    -7.6270 ca         1 LTW      -0.218000
     18 C19         12.9870    13.0320    -8.5180 c3         1 LTW       0.165600
     19 C23         11.4090    16.7990    -6.8620 cy         1 LTW      -0.157000
     20 C27         12.0430    16.9040    -8.2350 cy         1 LTW       0.168300
     21 C29         12.9020    14.4220    -2.8260 ca         1 LTW      -0.112000
     22 C30         12.5930    15.6150    -2.1380 ca         1 LTW      -0.088500
     23 C31         11.3400    16.3510    -2.4060 cc         1 LTW       0.293500
     24 C35          9.3350    16.8720    -3.2460 cd         1 LTW      -0.155000
     25 C36         10.2950    15.9080    -3.2420 cc         1 LTW      -0.222000
     26 C37         13.5220    16.1020    -1.1920 ca         1 LTW      -0.126000
     27 C38         17.3070    16.5130     1.6280 cc         1 LTW       0.043500
     28 C39         18.4930    16.4080     2.3060 cd         1 LTW      -0.094000
     29 C40         18.5470    17.5000     3.1980 cd         1 LTW      -0.200000
     30 C41         17.3980    18.2250     3.0300 cc         1 LTW       0.150900
     31 N03         15.5690    15.9690     0.0840 ns         1 LTW      -0.137000
     32 N08         13.7490    12.2310    -4.4890 ns         1 LTW      -0.161000
     33 N21         12.1190    15.3850    -8.0290 nq         1 LTW      -0.717600
     34 N32         11.0900    17.5430    -1.8910 nd         1 LTW      -0.526800
     35 N33          9.8480    17.8690    -2.4160 na         1 LTW       0.142800
     36 O01         17.4320    14.5960     0.2020 o          1 LTW      -0.563100
     37 O14         13.8680     6.3430    -6.1420 o          1 LTW      -0.533100
     38 O18         13.2600    12.6780    -7.1470 os         1 LTW      -0.330100
     39 O25         10.1860    18.2740    -6.2330 oq         1 LTW      -0.459000
     40 O28         15.2420    11.6190    -2.8510 o          1 LTW      -0.568100
     41 O42         16.6180    17.6300     2.0630 os         1 LTW      -0.245000
     42 H1          14.0820     9.6270    -3.8700 ha         1 LTW       0.120000
     43 H2          14.4410     5.9180    -3.6910 hc         1 LTW       0.060700
     44 H3          15.2020     7.5590    -3.6070 hc         1 LTW       0.060700
     45 H4          13.5320     7.4200    -3.2530 hc         1 LTW       0.060700
     46 H5          13.3920     8.1460    -7.8840 ha         1 LTW       0.134000
     47 H6          14.1390    14.8690    -8.3450 h1         1 LTW       0.047700
     48 H7          13.1010    14.7800    -9.7750 h1         1 LTW       0.047700
     49 H8          12.9400    15.5000    -5.9530 h1         1 LTW       0.055950
     50 H9          11.3000    14.7320    -6.0370 h1         1 LTW       0.055950
     51 H10         11.7900    17.7070    -4.8790 h1         1 LTW       0.055950
     52 H11         12.3200    18.7480    -6.2830 h1         1 LTW       0.055950
     53 H12          9.4030    16.9970    -7.8260 h1         1 LTW       0.055950
     54 H13          9.3770    16.2590    -6.1550 h1         1 LTW       0.055950
     55 H14         15.8900    13.6420    -1.3740 ha         1 LTW       0.169000
     56 H15         13.0630    10.4330    -8.6770 ha         1 LTW       0.124000
     57 H16         11.9750    12.7240    -8.8100 h1         1 LTW       0.047200
     58 H17         13.7050    12.5430    -9.1870 h1         1 LTW       0.047200
     59 H18         11.3940    17.2590    -9.0440 h1         1 LTW       0.055950
     60 H19         13.0120    17.4190    -8.2440 h1         1 LTW       0.055950
     61 H20         12.2010    14.0360    -3.5600 ha         1 LTW       0.118000
     62 H21          9.7810    19.9680    -2.5420 h1         1 LTW       0.058033
     63 H22          8.1850    19.1630    -2.4910 h1         1 LTW       0.058033
     64 H23          9.1730    19.2800    -1.0050 h1         1 LTW       0.058033
     65 H24          8.3770    16.9390    -3.7490 h4         1 LTW       0.158000
     66 H25         10.2540    14.9670    -3.7750 ha         1 LTW       0.144000
     67 H26         13.3130    17.0260    -0.6580 ha         1 LTW       0.130000
     68 H27         19.2410    15.6310     2.1770 ha         1 LTW       0.161000
     69 H28         19.3490    17.7300     3.8930 ha         1 LTW       0.149000
     70 H29         17.0290    19.1260     3.5010 h4         1 LTW       0.056100
     71 H30         15.2080    16.8140     0.5080 hn         1 LTW       0.166000
     72 H31         13.1880    13.0190    -4.7830 hn         1 LTW       0.158000
     73 C34          9.2060    19.1500    -2.0930 c3         1 LTW       0.072900
@<TRIPOS>BOND
     1     1    14 ar  
     2     1    15 ar  
     3     1    42 1   
     4     2    16 1   
     5     2    43 1   
     6     2    44 1   
     7     2    45 1   
     8     3    15 ar  
     9     3    17 ar  
    10     3    46 1   
    11     4    14 ar  
    12     4    17 ar  
    13     4    38 1   
    14     5    18 1   
    15     5    33 1   
    16     5    47 1   
    17     5    48 1   
    18     6    19 1   
    19     6    33 1   
    20     6    49 1   
    21     6    50 1   
    22     7    19 1   
    23     7    39 1   
    24     7    51 1   
    25     7    52 1   
    26     8    19 1   
    27     8    39 1   
    28     8    53 1   
    29     8    54 1   
    30     9    27 1   
    31     9    31 1   
    32     9    36 2   
    33    10    11 ar  
    34    10    26 ar  
    35    10    31 1   
    36    11    12 ar  
    37    11    55 1   
    38    12    13 1   
    39    12    21 ar  
    40    13    32 1   
    41    13    40 2   
    42    14    32 1   
    43    15    16 1   
    44    16    37 2   
    45    17    56 1   
    46    18    38 1   
    47    18    57 1   
    48    18    58 1   
    49    19    20 1   
    50    20    33 1   
    51    20    59 1   
    52    20    60 1   
    53    21    22 ar  
    54    21    61 1   
    55    22    23 1   
    56    22    26 ar  
    57    23    25 1   
    58    23    34 2   
    59    24    25 2   
    60    24    35 1   
    61    24    65 1   
    62    25    66 1   
    63    26    67 1   
    64    27    28 2   
    65    27    41 1   
    66    28    29 1   
    67    28    68 1   
    68    29    30 2   
    69    29    69 1   
    70    30    41 1   
    71    30    70 1   
    72    31    71 1   
    73    32    72 1   
    74    34    35 1   
    75    35    73 1   
    76    62    73 1   
    77    63    73 1   
    78    64    73 1   
@<TRIPOS>SUBSTRUCTURE
     1 LTW         1 TEMP              0 ****  ****    0 ROOT
