@<TRIPOS>MOLECULE
LTW
   73    78     1     0     0
SMALL
abcg2


@<TRIPOS>ATOM
      1 C10         13.5460     9.7450    -4.8270 ca         1 LTW      -0.044000
      2 C13         13.4370     6.9400    -3.9600 c3         1 LTW      -0.195100
      3 C15         13.9030     9.1000    -7.1020 ca         1 LTW      -0.010000
      4 C17         13.7830    11.4370    -6.5310 ca         1 LTW       0.191100
      5 C20         13.8230    14.6770    -8.1920 c3         1 LTW       0.166800
      6 C22         12.1380    15.2950    -6.4330 cy         1 LTW       0.168300
      7 C24         11.3230    17.8170    -5.8570 cy         1 LTW       0.158100
      8 C26          9.8990    16.6970    -6.8200 cy         1 LTW       0.158100
      9 C02         16.7380    15.7220     0.0950 c          1 LTW       0.546600
     10 C04         14.6120    15.5560    -1.1770 ca         1 LTW      -0.029000
     11 C05         14.9430    14.4950    -2.0180 ca         1 LTW      -0.083000
     12 C06         13.9900    14.0130    -2.9090 ca         1 LTW      -0.129600
     13 C07         14.3910    12.9170    -3.8400 c          1 LTW       0.620700
     14 C09         13.5850    11.0770    -5.1860 ca         1 LTW      -0.102000
     15 C11         13.6950     8.7320    -5.7750 ca         1 LTW      -0.215600
     16 C12         13.6480     7.2960    -5.4070 c          1 LTW       0.590700
     17 C16         13.9500    10.4290    -7.4820 ca         1 LTW      -0.218000
     18 C19         13.9210    13.1710    -8.1530 c3         1 LTW       0.165600
     19 C23         11.4230    16.6020    -6.7690 cy         1 LTW      -0.157000
     20 C27         12.2400    16.5880    -8.0630 cy         1 LTW       0.168300
     21 C29         12.7320    14.5900    -2.9880 ca         1 LTW      -0.112000
     22 C30         12.4090    15.6800    -2.1840 ca         1 LTW      -0.088500
     23 C31         11.1110    16.3390    -2.3380 cc         1 LTW       0.293500
     24 C35          9.0650    16.8950    -2.9100 cd         1 LTW      -0.155000
     25 C36          9.9790    15.8790    -3.0380 cc         1 LTW      -0.222000
     26 C37         13.3510    16.1470    -1.2780 ca         1 LTW      -0.126000
     27 C38         17.3660    16.4950     1.1720 cc         1 LTW       0.043500
     28 C39         18.6050    16.3820     1.7170 cd         1 LTW      -0.094000
     29 C40         18.6870    17.3820     2.7230 cd         1 LTW      -0.200000
     30 C41         17.4920    18.0240     2.7110 cc         1 LTW       0.150900
     31 N03         15.4730    16.0980    -0.2210 ns         1 LTW      -0.137000
     32 N08         13.3960    12.0820    -4.2180 ns         1 LTW      -0.161000
     33 N21         12.5150    15.1660    -7.8440 nq         1 LTW      -0.717600
     34 N32         10.8880    17.5400    -1.8230 nd         1 LTW      -0.526800
     35 N33          9.6520    17.8570    -2.1770 na         1 LTW       0.142800
     36 O01         17.3540    14.8170    -0.4420 o          1 LTW      -0.563100
     37 O14         13.7780     6.4340    -6.2550 o          1 LTW      -0.533100
     38 O18         13.7850    12.7400    -6.8030 os         1 LTW      -0.330100
     39 O25          9.9090    17.9170    -6.0680 oq         1 LTW      -0.459000
     40 O28         15.5380    12.7940    -4.2310 o          1 LTW      -0.568100
     41 O42         16.6860    17.4960     1.7760 os         1 LTW      -0.245000
     42 H1          13.3890     9.5140    -3.7810 ha         1 LTW       0.120000
     43 H2          13.4060     5.8600    -3.8380 hc         1 LTW       0.060700
     44 H3          14.2420     7.3390    -3.3410 hc         1 LTW       0.060700
     45 H4          12.5050     7.3640    -3.5850 hc         1 LTW       0.060700
     46 H5          14.0280     8.3380    -7.8590 ha         1 LTW       0.134000
     47 H6          14.6190    15.1190    -7.5700 h1         1 LTW       0.047700
     48 H7          14.0330    14.9720    -9.2240 h1         1 LTW       0.047700
     49 H8          12.9940    15.4590    -5.7620 h1         1 LTW       0.055950
     50 H9          11.5330    14.4790    -6.0300 h1         1 LTW       0.055950
     51 H10         11.5740    17.6190    -4.8100 h1         1 LTW       0.055950
     52 H11         11.8640    18.7090    -6.1890 h1         1 LTW       0.055950
     53 H12          9.4560    16.8170    -7.8130 h1         1 LTW       0.055950
     54 H13          9.3790    15.8900    -6.2920 h1         1 LTW       0.055950
     55 H14         15.9190    14.0410    -1.9840 ha         1 LTW       0.169000
     56 H15         14.1090    10.6660    -8.5250 ha         1 LTW       0.124000
     57 H16         13.1320    12.7320    -8.7710 h1         1 LTW       0.047200
     58 H17         14.8890    12.8540    -8.5540 h1         1 LTW       0.047200
     59 H18         11.7240    16.8280    -8.9970 h1         1 LTW       0.055950
     60 H19         13.1320    17.2250    -7.9820 h1         1 LTW       0.055950
     61 H20         12.0150    14.2300    -3.7130 ha         1 LTW       0.118000
     62 H21          9.6550    19.9450    -2.2560 h1         1 LTW       0.058033
     63 H22          8.0640    19.1820    -2.1290 h1         1 LTW       0.058033
     64 H23          9.1230    19.2470    -0.7140 h1         1 LTW       0.058033
     65 H24          8.0590    16.9990    -3.2830 h4         1 LTW       0.158000
     66 H25          9.8390    14.9460    -3.5590 ha         1 LTW       0.144000
     67 H26         13.1050    16.9890    -0.6410 ha         1 LTW       0.130000
     68 H27         19.3670    15.6730     1.4360 ha         1 LTW       0.161000
     69 H28         19.5220    17.5960     3.3690 ha         1 LTW       0.149000
     70 H29         17.0930    18.8430     3.2870 h4         1 LTW       0.056100
     71 H30         15.0810    16.8660     0.3040 hn         1 LTW       0.166000
     72 H31         12.5130    12.1080    -3.7310 hn         1 LTW       0.158000
     73 C34          9.0960    19.1330    -1.7950 c3         1 LTW       0.072900
@<TRIPOS>BOND
     1     1    14 ar  
     2     1    15 ar  
     3     1    42 1   
     4     2    16 1   
     5     2    43 1   
     6     2    44 1   
     7     2    45 1   
     8     3    15 ar  
     9     3    17 ar  
    10     3    46 1   
    11     4    14 ar  
    12     4    17 ar  
    13     4    38 1   
    14     5    18 1   
    15     5    33 1   
    16     5    47 1   
    17     5    48 1   
    18     6    19 1   
    19     6    33 1   
    20     6    49 1   
    21     6    50 1   
    22     7    19 1   
    23     7    39 1   
    24     7    51 1   
    25     7    52 1   
    26     8    19 1   
    27     8    39 1   
    28     8    53 1   
    29     8    54 1   
    30     9    27 1   
    31     9    31 1   
    32     9    36 2   
    33    10    11 ar  
    34    10    26 ar  
    35    10    31 1   
    36    11    12 ar  
    37    11    55 1   
    38    12    13 1   
    39    12    21 ar  
    40    13    32 1   
    41    13    40 2   
    42    14    32 1   
    43    15    16 1   
    44    16    37 2   
    45    17    56 1   
    46    18    38 1   
    47    18    57 1   
    48    18    58 1   
    49    19    20 1   
    50    20    33 1   
    51    20    59 1   
    52    20    60 1   
    53    21    22 ar  
    54    21    61 1   
    55    22    23 1   
    56    22    26 ar  
    57    23    25 1   
    58    23    34 2   
    59    24    25 2   
    60    24    35 1   
    61    24    65 1   
    62    25    66 1   
    63    26    67 1   
    64    27    28 2   
    65    27    41 1   
    66    28    29 1   
    67    28    68 1   
    68    29    30 2   
    69    29    69 1   
    70    30    41 1   
    71    30    70 1   
    72    31    71 1   
    73    32    72 1   
    74    34    35 1   
    75    35    73 1   
    76    62    73 1   
    77    63    73 1   
    78    64    73 1   
@<TRIPOS>SUBSTRUCTURE
     1 LTW         1 TEMP              0 ****  ****    0 ROOT
