@<TRIPOS>MOLECULE
LTX
   87    86     1     0     0
SMALL
No Charge or Current Charge


@<TRIPOS>ATOM
      1 O2          -3.3020     9.0450    -1.7780 o          1 LTX      -0.750500
      2 C1          -3.9720     8.0340    -1.6350 c          1 LTX       0.717000
      3 O1          -5.1230     8.0400    -1.2250 o          1 LTX      -0.750500
      4 C2          -3.3120     6.6750    -1.9300 c3         1 LTX      -0.205400
      5 C3          -2.6240     6.1260    -0.6570 c3         1 LTX      -0.049400
      6 C4          -1.9310     4.7590    -0.8830 c3         1 LTX      -0.116400
      7 C5          -1.2800     4.1560     0.3910 c3         1 LTX       0.187300
      8 O3          -0.2460     5.0440     0.8500 oh         1 LTX      -0.660000
      9 C6          -0.6900     2.7310     0.1580 c3         1 LTX       0.061500
     10 C7           0.1340     2.2230     1.3280 c2         1 LTX      -0.144200
     11 C8           1.3760     1.6990     1.2480 ce         1 LTX      -0.230000
     12 C9           2.1260     1.2170     2.4110 ce         1 LTX      -0.127000
     13 C10          3.3740     0.6820     2.3490 cf         1 LTX      -0.218000
     14 C11          4.1240     0.2020     3.5040 cf         1 LTX      -0.152000
     15 C12          5.3680    -0.3330     3.4630 c2         1 LTX      -0.234200
     16 C13          6.2380    -0.5500     2.2410 c3         1 LTX      -0.011000
     17 C14          6.9190     0.7400     1.8210 c2         1 LTX      -0.188200
     18 C15          8.2100     0.9090     1.4780 c2         1 LTX      -0.243200
     19 C16          9.2980    -0.1480     1.4500 c3         1 LTX      -0.037200
     20 C17          9.3210    -0.9250     0.1170 c3         1 LTX      -0.073400
     21 C18         10.4210    -2.0080     0.0640 c3         1 LTX      -0.076400
     22 C19         10.4400    -2.7860    -1.2700 c3         1 LTX      -0.075400
     23 C20         11.5370    -3.8670    -1.3230 c3         1 LTX      -0.087100
     24 O32          0.5330    -1.4680    -5.3270 o          1 LTX      -0.735000
     25 C21          0.6550    -2.6520    -5.0380 c          1 LTX       0.713000
     26 O31          0.9670    -3.5120    -5.8480 o          1 LTX      -0.735000
     27 CA3          0.3530    -3.0980    -3.5780 c3         1 LTX      -0.053000
     28 C22         -1.0560    -2.3430    -1.6060 c          1 LTX       0.581100
     29 O33         -0.8440    -3.3760    -0.9780 o          1 LTX      -0.649100
     30 CA2         -1.9340    -1.1790    -1.0650 c3         1 LTX       0.044700
     31 SG2         -2.0410     1.4950    -0.1380 ss         1 LTX      -0.410000
     32 N2          -2.7610    -1.6390     0.0780 ns         1 LTX      -0.499900
     33 CD1         -4.1090    -1.4020     0.2300 c          1 LTX       0.600100
     34 OE1         -4.7740    -0.8100    -0.6080 o          1 LTX      -0.592100
     35 CG1         -4.7130    -1.9250     1.5420 c3         1 LTX      -0.153400
     36 CB1         -5.5990    -3.1780     1.3030 c3         1 LTX      -0.091400
     37 CA1         -6.3560    -3.6840     2.5610 c3         1 LTX       0.019500
     38 N1          -5.3740    -4.1090     3.6230 n8         1 LTX      -0.994200
     39 C23         -7.4700    -4.7450     2.1600 c          1 LTX       0.729000
     40 O11         -7.1140    -5.8220     1.6940 o          1 LTX      -0.739000
     41 O12         -8.6420    -4.4730     2.3870 o          1 LTX      -0.739000
     42 H2          -4.0710     5.9330    -2.2060 hc         1 LTX       0.020200
     43 H3          -2.5150     6.7910    -2.6760 hc         1 LTX       0.020200
     44 H4          -1.8860     6.8590    -0.3070 hc         1 LTX       0.040200
     45 H5          -3.3710     6.0220     0.1400 hc         1 LTX       0.040200
     46 H6          -2.6790     4.0560    -1.2680 hc         1 LTX       0.046700
     47 H7          -1.1690     4.8630    -1.6660 hc         1 LTX       0.046700
     48 H8          -2.0580     4.0710     1.1630 h1         1 LTX       0.079700
     49 H9           0.4900     4.9830     0.2050 ho         1 LTX       0.433000
     50 H10         -0.0600     2.7620    -0.7410 h1         1 LTX       0.069700
     51 H11         -0.3690     2.3100     2.2930 ha         1 LTX       0.181000
     52 H12          1.8700     1.6150     0.2780 ha         1 LTX       0.175000
     53 H13          1.6380     1.2980     3.3850 ha         1 LTX       0.164000
     54 H14          3.8510     0.6070     1.3700 ha         1 LTX       0.176000
     55 H15          3.6310     0.2890     4.4760 ha         1 LTX       0.163000
     56 H16          5.8300    -0.6550     4.3980 ha         1 LTX       0.157000
     57 H17          6.9700    -1.3390     2.4490 hc         1 LTX       0.055700
     58 H18          5.6310    -0.9320     1.4110 hc         1 LTX       0.055700
     59 H19          6.2460     1.5990     1.8000 ha         1 LTX       0.170000
     60 H20          8.5590     1.9020     1.1890 ha         1 LTX       0.155000
     61 H21         10.2750     0.3250     1.6090 hc         1 LTX       0.041700
     62 H22          9.1720    -0.8560     2.2770 hc         1 LTX       0.041700
     63 H23          8.3430    -1.3970    -0.0390 hc         1 LTX       0.038700
     64 H24          9.4700    -0.2170    -0.7080 hc         1 LTX       0.038700
     65 H25         11.3990    -1.5360     0.2200 hc         1 LTX       0.036700
     66 H26         10.2710    -2.7150     0.8900 hc         1 LTX       0.036700
     67 H27          9.4640    -3.2610    -1.4280 hc         1 LTX       0.036200
     68 H28         10.5920    -2.0830    -2.0990 hc         1 LTX       0.036200
     69 H29         11.3920    -4.6060    -0.5270 hc         1 LTX       0.028033
     70 H30         11.5110    -4.3900    -2.2860 hc         1 LTX       0.028033
     71 H31         12.5300    -3.4180    -1.2030 hc         1 LTX       0.028033
     72 H33         -0.1350    -4.0810    -3.6040 h1         1 LTX       0.032200
     73 H34          1.3040    -3.1870    -3.0380 h1         1 LTX       0.032200
     74 H35         -0.7450    -1.2660    -3.3300 hn         1 LTX       0.343500
     75 H36         -2.5910    -0.8670    -1.8870 h1         1 LTX       0.089700
     76 H37         -0.3820    -0.2790     0.1630 h1         1 LTX       0.071700
     77 H38         -0.4100     0.3150    -1.5110 h1         1 LTX       0.071700
     78 H39         -2.3080    -2.1710     0.8110 hn         1 LTX       0.311500
     79 H40         -3.9090    -2.1830     2.2410 hc         1 LTX       0.041200
     80 H41         -5.3390    -1.1360     1.9740 hc         1 LTX       0.041200
     81 H42         -6.3430    -2.9330     0.5340 hc         1 LTX       0.062200
     82 H43         -4.9860    -3.9880     0.8890 hc         1 LTX       0.062200
     83 H44         -6.9000    -2.8210     2.9700 h1         1 LTX       0.037700
     84 H45         -4.8890    -4.9560     3.3030 hn         1 LTX       0.372000
     85 H46         -4.6310    -3.4050     3.6910 hn         1 LTX       0.372000
     86 CB2         -1.0420     0.0210    -0.6620 c3         1 LTX       0.047600
     87 N3          -0.5240    -2.1410    -2.8630 ns         1 LTX      -0.460900
@<TRIPOS>BOND
     1     1     2 1   
     2     2     3 1   
     3     2     4 1   
     4     4     5 1   
     5     4    42 1   
     6     4    43 1   
     7     5     6 1   
     8     5    44 1   
     9     5    45 1   
    10     6     7 1   
    11     6    46 1   
    12     6    47 1   
    13     7     8 1   
    14     7     9 1   
    15     7    48 1   
    16     8    49 1   
    17     9    10 1   
    18     9    31 1   
    19     9    50 1   
    20    10    11 2   
    21    10    51 1   
    22    11    12 1   
    23    11    52 1   
    24    12    13 2   
    25    12    53 1   
    26    13    14 1   
    27    13    54 1   
    28    14    15 2   
    29    14    55 1   
    30    15    16 1   
    31    15    56 1   
    32    16    17 1   
    33    16    57 1   
    34    16    58 1   
    35    17    18 2   
    36    17    59 1   
    37    18    19 1   
    38    18    60 1   
    39    19    20 1   
    40    19    61 1   
    41    19    62 1   
    42    20    21 1   
    43    20    63 1   
    44    20    64 1   
    45    21    22 1   
    46    21    65 1   
    47    21    66 1   
    48    22    23 1   
    49    22    67 1   
    50    22    68 1   
    51    23    69 1   
    52    23    70 1   
    53    23    71 1   
    54    24    25 1   
    55    25    26 1   
    56    25    27 1   
    57    27    72 1   
    58    27    73 1   
    59    27    87 1   
    60    28    29 2   
    61    28    30 1   
    62    28    87 1   
    63    30    32 1   
    64    30    75 1   
    65    30    86 1   
    66    31    86 1   
    67    32    33 1   
    68    32    78 1   
    69    33    34 2   
    70    33    35 1   
    71    35    36 1   
    72    35    79 1   
    73    35    80 1   
    74    36    37 1   
    75    36    81 1   
    76    36    82 1   
    77    37    38 1   
    78    37    39 1   
    79    37    83 1   
    80    38    84 1   
    81    38    85 1   
    82    39    40 1   
    83    39    41 1   
    84    74    87 1   
    85    76    86 1   
    86    77    86 1   
@<TRIPOS>SUBSTRUCTURE
     1 LTX         1 TEMP              0 ****  ****    0 ROOT
