@<TRIPOS>MOLECULE
LTX
   87    86     1     0     0
SMALL
abcg2


@<TRIPOS>ATOM
      1 O2          -5.3380     8.5520    -2.4280 o          1 LTX      -0.750500
      2 C1          -4.5950     8.1780    -1.4950 c          1 LTX       0.717000
      3 O1          -4.3650     8.8050    -0.4420 o          1 LTX      -0.750500
      4 C2          -3.9210     6.8080    -1.6820 c3         1 LTX      -0.205400
      5 C3          -2.9670     6.3780    -0.5790 c3         1 LTX      -0.049400
      6 C4          -2.3630     5.0040    -0.8460 c3         1 LTX      -0.116400
      7 C5          -1.4870     4.4930     0.2920 c3         1 LTX       0.187300
      8 O3          -0.4400     5.3860     0.6000 oh         1 LTX      -0.660000
      9 C6          -0.8970     3.0980     0.0120 c3         1 LTX       0.061500
     10 C7           0.0440     2.6650     1.0790 c2         1 LTX      -0.144200
     11 C8           1.2480     2.1260     0.8540 ce         1 LTX      -0.230000
     12 C9           2.1230     1.6610     1.9070 ce         1 LTX      -0.127000
     13 C10          3.3230     1.0930     1.6970 cf         1 LTX      -0.218000
     14 C11          4.1750     0.6330     2.7740 cf         1 LTX      -0.152000
     15 C12          5.3740     0.0470     2.6520 c2         1 LTX      -0.234200
     16 C13          6.1180    -0.2480     1.3840 c3         1 LTX      -0.011000
     17 C14          7.3190     0.6490     1.2740 c2         1 LTX      -0.188200
     18 C15          8.5990     0.3050     1.4020 c2         1 LTX      -0.243200
     19 C16          9.1680    -1.0570     1.6460 c3         1 LTX      -0.037200
     20 C17         10.1750    -1.4640     0.5690 c3         1 LTX      -0.073400
     21 C18         10.8100    -2.8220     0.8380 c3         1 LTX      -0.076400
     22 C19         11.8380    -3.2230    -0.2120 c3         1 LTX      -0.075400
     23 C20         12.4600    -4.5860     0.0620 c3         1 LTX      -0.087100
     24 O32         -1.5650    -0.9390    -5.7560 o          1 LTX      -0.735000
     25 C21         -0.8670    -1.9520    -5.5560 c          1 LTX       0.713000
     26 O31         -0.2370    -2.6180    -6.3940 o          1 LTX      -0.735000
     27 CA3         -0.7570    -2.4510    -4.1000 c3         1 LTX      -0.053000
     28 C22         -1.5470    -1.7480    -1.8890 c          1 LTX       0.581100
     29 O33         -0.9730    -2.6360    -1.2770 o          1 LTX      -0.649100
     30 CA2         -2.3270    -0.6450    -1.1580 c3         1 LTX       0.044700
     31 SG2         -2.2640     1.8750    -0.0830 ss         1 LTX      -0.410000
     32 N2          -2.8680    -1.1280     0.0820 ns         1 LTX      -0.499900
     33 CD1         -3.7880    -2.1140     0.1020 c          1 LTX       0.600100
     34 OE1         -4.2720    -2.5560    -0.9280 o          1 LTX      -0.592100
     35 CG1         -4.1660    -2.6050     1.4830 c3         1 LTX      -0.153400
     36 CB1         -5.2820    -3.6370     1.4820 c3         1 LTX      -0.091400
     37 CA1         -5.6800    -4.0970     2.8940 c3         1 LTX       0.019500
     38 N1          -4.6210    -4.7470     3.6500 n8         1 LTX      -0.994200
     39 C23         -6.9030    -5.0300     2.7600 c          1 LTX       0.729000
     40 O11         -6.6890    -6.2570     2.7920 o          1 LTX      -0.739000
     41 O12         -8.0050    -4.4710     2.5830 o          1 LTX      -0.739000
     42 H2          -4.7110     6.0560    -1.7970 hc         1 LTX       0.020200
     43 H3          -3.3960     6.8120    -2.6450 hc         1 LTX       0.020200
     44 H4          -2.1740     7.1210    -0.4690 hc         1 LTX       0.040200
     45 H5          -3.4990     6.3570     0.3770 hc         1 LTX       0.040200
     46 H6          -3.1680     4.2840    -1.0170 hc         1 LTX       0.046700
     47 H7          -1.7750     5.0230    -1.7720 hc         1 LTX       0.046700
     48 H8          -2.0920     4.4320     1.2050 h1         1 LTX       0.079700
     49 H9           0.0750     5.5360    -0.2010 ho         1 LTX       0.433000
     50 H10         -0.3980     3.1040    -0.9640 h1         1 LTX       0.069700
     51 H11         -0.3130     2.7680     2.1010 ha         1 LTX       0.181000
     52 H12          1.6020     2.0190    -0.1690 ha         1 LTX       0.175000
     53 H13          1.7690     1.7870     2.9280 ha         1 LTX       0.164000
     54 H14          3.6690     0.9690     0.6750 ha         1 LTX       0.176000
     55 H15          3.7890     0.7860     3.7780 ha         1 LTX       0.163000
     56 H16          5.8940    -0.2290     3.5640 ha         1 LTX       0.157000
     57 H17          6.4180    -1.2980     1.3840 hc         1 LTX       0.055700
     58 H18          5.4780    -0.1080     0.5100 hc         1 LTX       0.055700
     59 H19          7.0890     1.6970     1.1030 ha         1 LTX       0.170000
     60 H20          9.3380     1.0980     1.3150 ha         1 LTX       0.155000
     61 H21          9.6770    -1.0590     2.6160 hc         1 LTX       0.041700
     62 H22          8.3800    -1.8120     1.7140 hc         1 LTX       0.041700
     63 H23          9.6780    -1.4780    -0.4060 hc         1 LTX       0.038700
     64 H24         10.9590    -0.7020     0.5020 hc         1 LTX       0.038700
     65 H25         11.2860    -2.8100     1.8250 hc         1 LTX       0.036700
     66 H26         10.0270    -3.5860     0.8890 hc         1 LTX       0.036700
     67 H27         11.3660    -3.2270    -1.1990 hc         1 LTX       0.036200
     68 H28         12.6250    -2.4640    -0.2550 hc         1 LTX       0.036200
     69 H29         11.7030    -5.3720     0.0640 hc         1 LTX       0.028033
     70 H30         13.2050    -4.8460    -0.6900 hc         1 LTX       0.028033
     71 H31         12.9530    -4.6040     1.0360 hc         1 LTX       0.028033
     72 H33         -1.1090    -3.4860    -4.0520 h1         1 LTX       0.032200
     73 H34          0.2980    -2.4690    -3.8100 h1         1 LTX       0.032200
     74 H35         -2.0150    -0.8580    -3.6700 hn         1 LTX       0.343500
     75 H36         -3.1440    -0.2990    -1.7990 h1         1 LTX       0.089700
     76 H37         -0.5330     0.2010    -0.2890 h1         1 LTX       0.071700
     77 H38         -0.9880     0.8800    -1.8550 h1         1 LTX       0.071700
     78 H39         -2.4170    -0.8630     0.9430 hn         1 LTX       0.311500
     79 H40         -3.2600    -3.0120     1.9430 hc         1 LTX       0.041200
     80 H41         -4.4470    -1.7430     2.0970 hc         1 LTX       0.041200
     81 H42         -6.1620    -3.2170     0.9910 hc         1 LTX       0.062200
     82 H43         -4.9790    -4.5110     0.8970 hc         1 LTX       0.062200
     83 H44         -5.9930    -3.2100     3.4570 h1         1 LTX       0.037700
     84 H45         -4.3540    -5.5990     3.1730 hn         1 LTX       0.372000
     85 H46         -3.7960    -4.1620     3.6870 hn         1 LTX       0.372000
     86 CB2         -1.3790     0.5210    -0.9030 c3         1 LTX       0.047600
     87 N3          -1.5160    -1.6090    -3.2120 ns         1 LTX      -0.460900
@<TRIPOS>BOND
     1     1     2 1   
     2     2     3 1   
     3     2     4 1   
     4     4     5 1   
     5     4    42 1   
     6     4    43 1   
     7     5     6 1   
     8     5    44 1   
     9     5    45 1   
    10     6     7 1   
    11     6    46 1   
    12     6    47 1   
    13     7     8 1   
    14     7     9 1   
    15     7    48 1   
    16     8    49 1   
    17     9    10 1   
    18     9    31 1   
    19     9    50 1   
    20    10    11 2   
    21    10    51 1   
    22    11    12 1   
    23    11    52 1   
    24    12    13 2   
    25    12    53 1   
    26    13    14 1   
    27    13    54 1   
    28    14    15 2   
    29    14    55 1   
    30    15    16 1   
    31    15    56 1   
    32    16    17 1   
    33    16    57 1   
    34    16    58 1   
    35    17    18 2   
    36    17    59 1   
    37    18    19 1   
    38    18    60 1   
    39    19    20 1   
    40    19    61 1   
    41    19    62 1   
    42    20    21 1   
    43    20    63 1   
    44    20    64 1   
    45    21    22 1   
    46    21    65 1   
    47    21    66 1   
    48    22    23 1   
    49    22    67 1   
    50    22    68 1   
    51    23    69 1   
    52    23    70 1   
    53    23    71 1   
    54    24    25 1   
    55    25    26 1   
    56    25    27 1   
    57    27    72 1   
    58    27    73 1   
    59    27    87 1   
    60    28    29 2   
    61    28    30 1   
    62    28    87 1   
    63    30    32 1   
    64    30    75 1   
    65    30    86 1   
    66    31    86 1   
    67    32    33 1   
    68    32    78 1   
    69    33    34 2   
    70    33    35 1   
    71    35    36 1   
    72    35    79 1   
    73    35    80 1   
    74    36    37 1   
    75    36    81 1   
    76    36    82 1   
    77    37    38 1   
    78    37    39 1   
    79    37    83 1   
    80    38    84 1   
    81    38    85 1   
    82    39    40 1   
    83    39    41 1   
    84    74    87 1   
    85    76    86 1   
    86    77    86 1   
@<TRIPOS>SUBSTRUCTURE
     1 LTX         1 TEMP              0 ****  ****    0 ROOT
