@<TRIPOS>MOLECULE
LTY
   53    57     1     0     0
SMALL
No Charge or Current Charge


@<TRIPOS>ATOM
      1 C4          -0.5350     2.8430    -0.1140 ca         1 LTY      -0.128000
      2 C14         -2.5180    -3.5000     0.2420 c6         1 LTY      -0.058700
      3 C5          -0.6300     1.4370    -0.0460 ca         1 LTY      -0.009000
      4 C6          -1.9050     0.8310    -0.0110 ca         1 LTY       0.212000
      5 C7          -3.0630     1.6240    -0.0390 ca         1 LTY      -0.101000
      6 C8          -2.9850     3.0240    -0.1040 ca         1 LTY       0.255000
      7 C10         -4.0240     5.1070    -0.1940 ca         1 LTY       0.341900
      8 C12         -2.5860    -1.3090    -1.1060 c6         1 LTY       0.180300
      9 C13         -2.1490    -2.7950    -1.0950 c6         1 LTY      -0.071900
     10 C3          -1.7030     3.6290    -0.1420 ca         1 LTY      -0.060000
     11 C1          -2.7930     5.7790    -0.2340 ca         1 LTY      -0.166000
     12 C2          -1.6070     5.0300    -0.2080 ca         1 LTY      -0.062000
     13 N9          -4.1240     3.7590    -0.1300 nb         1 LTY      -0.660000
     14 N11         -2.0160    -0.5770     0.0590 nh         1 LTY      -0.794400
     15 C15         -1.9190    -2.6790     1.4170 c6         1 LTY      -0.071900
     16 C16         -2.3520    -1.1920     1.3710 c6         1 LTY       0.180300
     17 C17         -4.0540    -3.7250     0.4190 c3         1 LTY       0.149800
     18 N18         -4.6500    -4.6220    -0.5910 n8         1 LTY      -0.998200
     19 N19          0.4980     0.5700    -0.0220 ns         1 LTY      -0.148000
     20 C20          1.8650     0.7920     0.0110 c          1 LTY       0.661300
     21 O21          2.3670     1.9070     0.0400 o          1 LTY      -0.570100
     22 C22          2.6420    -0.4550     0.0090 cc         1 LTY      -0.363800
     23 C23          2.1210    -1.7770    -0.0330 cc         1 LTY       0.417500
     24 N24          3.0270    -2.7510    -0.0260 nd         1 LTY      -0.576100
     25 N25          4.1730    -1.9890     0.0220 na         1 LTY       0.115900
     26 C26          3.9890    -0.6160     0.0440 cd         1 LTY       0.428500
     27 N27          4.9120     0.4090     0.0910 nd         1 LTY      -0.609000
     28 C28          6.1290    -0.1360     0.1160 cc         1 LTY       0.380900
     29 C29          6.4360    -1.5510     0.0960 cc         1 LTY      -0.221000
     30 C30          5.4520    -2.5340     0.0480 cd         1 LTY      -0.035000
     31 H1           0.4290     3.3400    -0.1490 ha         1 LTY       0.150000
     32 H2          -2.0580    -4.4980     0.2520 hc         1 LTY       0.045700
     33 H3          -4.0370     1.1460    -0.0090 ha         1 LTY       0.133000
     34 H4          -4.9610     5.6640    -0.2120 h4         1 LTY       0.016100
     35 H6          -3.6840    -1.2450    -1.0940 h1         1 LTY       0.042450
     36 H7          -1.0630    -2.8480    -1.2460 hc         1 LTY       0.050200
     37 H8          -2.5980    -3.3190    -1.9480 hc         1 LTY       0.050200
     38 H9          -2.7660     6.8640    -0.2850 ha         1 LTY       0.122000
     39 H10         -0.6390     5.5280    -0.2390 ha         1 LTY       0.122000
     40 H11         -2.2120    -3.1200     2.3790 hc         1 LTY       0.050200
     41 H12         -0.8220    -2.7330     1.3790 hc         1 LTY       0.050200
     42 H13         -1.8420    -0.6510     2.1820 h1         1 LTY       0.042450
     43 H14         -3.4340    -1.1150     1.5570 h1         1 LTY       0.042450
     44 H15         -4.2330    -4.1660     1.4100 h1         1 LTY       0.028700
     45 H16         -4.5790    -2.7610     0.3810 h1         1 LTY       0.028700
     46 H17         -4.2240    -5.5520    -0.5040 hn         1 LTY       0.392500
     47 H18         -5.6360    -4.7850    -0.3540 hn         1 LTY       0.392500
     48 H20          0.2270    -0.4040    -0.0270 hn         1 LTY       0.176000
     49 H21          1.0780    -2.0640    -0.0710 h4         1 LTY       0.054800
     50 H22          6.9230     0.5980     0.1530 h4         1 LTY       0.037100
     51 H23          7.4820    -1.8340     0.1210 ha         1 LTY       0.146000
     52 H24          5.5830    -3.6090     0.0310 h4         1 LTY       0.166000
     53 H5          -2.2420    -0.8480    -2.0440 h1         1 LTY       0.042450
@<TRIPOS>BOND
     1     1     3 ar  
     2     1    10 ar  
     3     1    31 1   
     4     2     9 1   
     5     2    15 1   
     6     2    17 1   
     7     2    32 1   
     8     3     4 ar  
     9     3    19 1   
    10     4     5 ar  
    11     4    14 1   
    12     5     6 ar  
    13     5    33 1   
    14     6    10 ar  
    15     6    13 ar  
    16     7    11 ar  
    17     7    13 ar  
    18     7    34 1   
    19     8     9 1   
    20     8    14 1   
    21     8    35 1   
    22     8    53 1   
    23     9    36 1   
    24     9    37 1   
    25    10    12 ar  
    26    11    12 ar  
    27    11    38 1   
    28    12    39 1   
    29    14    16 1   
    30    15    16 1   
    31    15    40 1   
    32    15    41 1   
    33    16    42 1   
    34    16    43 1   
    35    17    18 1   
    36    17    44 1   
    37    17    45 1   
    38    18    46 1   
    39    18    47 1   
    40    19    20 1   
    41    19    48 1   
    42    20    21 2   
    43    20    22 1   
    44    22    23 1   
    45    22    26 2   
    46    23    24 2   
    47    23    49 1   
    48    24    25 1   
    49    25    26 1   
    50    25    30 1   
    51    26    27 1   
    52    27    28 2   
    53    28    29 1   
    54    28    50 1   
    55    29    30 2   
    56    29    51 1   
    57    30    52 1   
@<TRIPOS>SUBSTRUCTURE
     1 LTY         1 TEMP              0 ****  ****    0 ROOT
