@<TRIPOS>MOLECULE
LTY
   53    57     1     0     0
SMALL
abcg2


@<TRIPOS>ATOM
      1 C4          -0.5330     2.7720    -0.1620 ca         1 LTY      -0.128000
      2 C14         -2.5240    -3.4540     0.0990 c6         1 LTY      -0.058700
      3 C5          -0.6380     1.4070    -0.2320 ca         1 LTY      -0.009000
      4 C6          -1.9330     0.7850    -0.2880 ca         1 LTY       0.212000
      5 C7          -3.0560     1.5620    -0.3370 ca         1 LTY      -0.101000
      6 C8          -2.9710     2.9730    -0.2930 ca         1 LTY       0.255000
      7 C10         -4.0280     4.9970    -0.2660 ca         1 LTY       0.341900
      8 C12         -3.0180    -1.2560    -1.0640 c6         1 LTY       0.180300
      9 C13         -2.7210    -2.7370    -1.2380 c6         1 LTY      -0.071900
     10 C3          -1.6960     3.5750    -0.1820 ca         1 LTY      -0.060000
     11 C1          -2.8100     5.6970    -0.1560 ca         1 LTY      -0.166000
     12 C2          -1.6450     4.9830    -0.1140 ca         1 LTY      -0.062000
     13 N9          -4.1150     3.6930    -0.3330 nb         1 LTY      -0.660000
     14 N11         -1.9500    -0.6230    -0.3040 nh         1 LTY      -0.794400
     15 C15         -1.4940    -2.6930     0.9330 c6         1 LTY      -0.071900
     16 C16         -1.8080    -1.2090     1.0320 c6         1 LTY       0.180300
     17 C17         -3.8260    -3.6560     0.8750 c3         1 LTY       0.149800
     18 N18         -4.7770    -4.4550     0.1180 n8         1 LTY      -0.998200
     19 N19          0.4250     0.5170    -0.3060 ns         1 LTY      -0.148000
     20 C20          1.7370     0.7110    -0.0040 c          1 LTY       0.661300
     21 O21          2.1840     1.7690     0.4060 o          1 LTY      -0.570100
     22 C22          2.5750    -0.4730    -0.2010 cc         1 LTY      -0.363800
     23 C23          2.2870    -1.6930    -0.8360 cc         1 LTY       0.417500
     24 N24          3.2990    -2.5360    -0.8270 nd         1 LTY      -0.576100
     25 N25          4.2710    -1.8850    -0.1820 na         1 LTY       0.115900
     26 C26          3.8980    -0.6200     0.2230 cd         1 LTY       0.428500
     27 N27          4.7410     0.1760     0.8890 nd         1 LTY      -0.609000
     28 C28          5.9360    -0.2940     1.1350 cc         1 LTY       0.380900
     29 C29          6.3730    -1.5790     0.7390 cc         1 LTY      -0.221000
     30 C30          5.5030    -2.3770     0.0670 cd         1 LTY      -0.035000
     31 H1           0.4300     3.2560    -0.1160 ha         1 LTY       0.150000
     32 H2          -2.1180    -4.4520    -0.1060 hc         1 LTY       0.045700
     33 H3          -4.0400     1.1140    -0.3950 ha         1 LTY       0.133000
     34 H4          -4.9610     5.5510    -0.2990 h4         1 LTY       0.016100
     35 H6          -3.9980    -1.1240    -0.5830 h1         1 LTY       0.042450
     36 H7          -1.8140    -2.8390    -1.8410 hc         1 LTY       0.050200
     37 H8          -3.5330    -3.2020    -1.7990 hc         1 LTY       0.050200
     38 H9          -2.8130     6.7770    -0.1070 ha         1 LTY       0.122000
     39 H10         -0.6880     5.4830    -0.0290 ha         1 LTY       0.122000
     40 H11         -1.4320    -3.1090     1.9420 hc         1 LTY       0.050200
     41 H12         -0.5010    -2.8170     0.4890 hc         1 LTY       0.050200
     42 H13         -1.0020    -0.7000     1.5660 h1         1 LTY       0.042450
     43 H14         -2.7200    -1.0400     1.6220 h1         1 LTY       0.042450
     44 H15         -3.5690    -4.0950     1.8500 h1         1 LTY       0.028700
     45 H16         -4.2940    -2.6920     1.0960 h1         1 LTY       0.028700
     46 H17         -4.4100    -5.3930     0.0100 hn         1 LTY       0.392500
     47 H18         -5.6320    -4.5550     0.6500 hn         1 LTY       0.392500
     48 H20          0.1110    -0.4100    -0.5700 hn         1 LTY       0.176000
     49 H21          1.3710    -1.9910    -1.3280 h4         1 LTY       0.054800
     50 H22          6.6150     0.3550     1.6750 h4         1 LTY       0.037100
     51 H23          7.3710    -1.9210     0.9650 ha         1 LTY       0.146000
     52 H24          5.7150    -3.3750    -0.2860 h4         1 LTY       0.166000
     53 H5          -3.0800    -0.7740    -2.0410 h1         1 LTY       0.042450
@<TRIPOS>BOND
     1     1     3 ar  
     2     1    10 ar  
     3     1    31 1   
     4     2     9 1   
     5     2    15 1   
     6     2    17 1   
     7     2    32 1   
     8     3     4 ar  
     9     3    19 1   
    10     4     5 ar  
    11     4    14 1   
    12     5     6 ar  
    13     5    33 1   
    14     6    10 ar  
    15     6    13 ar  
    16     7    11 ar  
    17     7    13 ar  
    18     7    34 1   
    19     8     9 1   
    20     8    14 1   
    21     8    35 1   
    22     8    53 1   
    23     9    36 1   
    24     9    37 1   
    25    10    12 ar  
    26    11    12 ar  
    27    11    38 1   
    28    12    39 1   
    29    14    16 1   
    30    15    16 1   
    31    15    40 1   
    32    15    41 1   
    33    16    42 1   
    34    16    43 1   
    35    17    18 1   
    36    17    44 1   
    37    17    45 1   
    38    18    46 1   
    39    18    47 1   
    40    19    20 1   
    41    19    48 1   
    42    20    21 2   
    43    20    22 1   
    44    22    23 1   
    45    22    26 2   
    46    23    24 2   
    47    23    49 1   
    48    24    25 1   
    49    25    26 1   
    50    25    30 1   
    51    26    27 1   
    52    27    28 2   
    53    28    29 1   
    54    28    50 1   
    55    29    30 2   
    56    29    51 1   
    57    30    52 1   
@<TRIPOS>SUBSTRUCTURE
     1 LTY         1 TEMP              0 ****  ****    0 ROOT
