@<TRIPOS>MOLECULE
LU0
   26    25     1     0     0
SMALL
No Charge or Current Charge


@<TRIPOS>ATOM
      1 O15         -0.5230    -2.6380     1.3230 o          1 LU0      -0.724000
      2 C14         -0.0900    -1.9270     0.4250 c          1 LU0       0.710000
      3 O16          0.7120    -2.3270    -0.4130 o          1 LU0      -0.724000
      4 C13         -0.5140    -0.4020     0.3990 c3         1 LU0       0.088500
      5 C12         -1.8870    -0.2490    -0.3140 c3         1 LU0      -0.056400
      6 C1          -2.5460     1.1600    -0.2400 c3         1 LU0      -0.060700
      7 C3          -3.8310     1.2120    -1.0970 c3         1 LU0      -0.082600
      8 C2          -2.8380     1.6120     1.2120 c3         1 LU0      -0.082600
      9 N17          0.4850     0.5350    -0.2330 n7         1 LU0      -0.894300
     10 S18          2.0100     0.6040     0.3440 s6         1 LU0       1.271200
     11 O21          2.5120     1.9580     0.1500 o          1 LU0      -0.600000
     12 O20          2.0850    -0.0970     1.6170 o          1 LU0      -0.600000
     13 N19          2.7040    -0.3550    -0.7300 n8         1 LU0      -1.061100
     14 H2          -0.6530    -0.1270     1.4530 h1         1 LU0       0.072700
     15 H3          -1.7630    -0.5320    -1.3670 hc         1 LU0       0.045700
     16 H4          -2.5850    -0.9790     0.1160 hc         1 LU0       0.045700
     17 H5          -1.8470     1.8860    -0.6740 hc         1 LU0       0.045700
     18 H6          -4.5850     0.5130    -0.7150 hc         1 LU0       0.024200
     19 H7          -4.2630     2.2200    -1.0880 hc         1 LU0       0.024200
     20 H8          -3.6140     0.9490    -2.1390 hc         1 LU0       0.024200
     21 H9          -1.9120     1.7160     1.7890 hc         1 LU0       0.024200
     22 H10         -3.3410     2.5860     1.2190 hc         1 LU0       0.024200
     23 H11         -3.4860     0.8890     1.7230 hc         1 LU0       0.024200
     24 H12          0.7170     0.1800    -1.1570 hn         1 LU0       0.479000
     25 H13          2.1570    -1.2110    -0.5740 hn         1 LU0       0.491500
     26 H14          3.5790    -0.5560    -0.2550 hn         1 LU0       0.491500
@<TRIPOS>BOND
     1     1     2 1   
     2     2     3 1   
     3     2     4 1   
     4     4     5 1   
     5     4     9 1   
     6     4    14 1   
     7     5     6 1   
     8     5    15 1   
     9     5    16 1   
    10     6     7 1   
    11     6     8 1   
    12     6    17 1   
    13     7    18 1   
    14     7    19 1   
    15     7    20 1   
    16     8    21 1   
    17     8    22 1   
    18     8    23 1   
    19     9    10 1   
    20     9    24 1   
    21    10    11 2   
    22    10    12 2   
    23    10    13 1   
    24    13    25 1   
    25    13    26 1   
@<TRIPOS>SUBSTRUCTURE
     1 LU0         1 TEMP              0 ****  ****    0 ROOT
