@<TRIPOS>MOLECULE
LU0
   26    25     1     0     0
SMALL
abcg2


@<TRIPOS>ATOM
      1 O15         -1.0520    -2.8820     0.5810 o          1 LU0      -0.724000
      2 C14         -0.1890    -2.0800     0.1940 c          1 LU0       0.710000
      3 O16          0.9600    -2.3700    -0.2100 o          1 LU0      -0.724000
      4 C13         -0.5900    -0.5850     0.2620 c3         1 LU0       0.088500
      5 C12         -1.9530    -0.3340    -0.3840 c3         1 LU0      -0.056400
      6 C1          -2.4580     1.1070    -0.2970 c3         1 LU0      -0.060700
      7 C3          -3.8490     1.2020    -0.9170 c3         1 LU0      -0.082600
      8 C2          -2.4650     1.6340     1.1340 c3         1 LU0      -0.082600
      9 N17          0.3660     0.3490    -0.3250 n7         1 LU0      -0.894300
     10 S18          1.7820     0.7360     0.3810 s6         1 LU0       1.271200
     11 O21          2.1960     2.0600    -0.0560 o          1 LU0      -0.600000
     12 O20          1.6090     0.5430     1.8170 o          1 LU0      -0.600000
     13 N19          2.8340    -0.3310    -0.3020 n8         1 LU0      -1.061100
     14 H2          -0.6740    -0.3360     1.3220 h1         1 LU0       0.072700
     15 H3          -1.9170    -0.6370    -1.4370 hc         1 LU0       0.045700
     16 H4          -2.6720    -0.9970     0.1010 hc         1 LU0       0.045700
     17 H5          -1.7880     1.7430    -0.8840 hc         1 LU0       0.045700
     18 H6          -4.5740     0.6070    -0.3550 hc         1 LU0       0.024200
     19 H7          -4.2060     2.2330    -0.9290 hc         1 LU0       0.024200
     20 H8          -3.8510     0.8390    -1.9470 hc         1 LU0       0.024200
     21 H9          -1.4570     1.7110     1.5450 hc         1 LU0       0.024200
     22 H10         -2.9080     2.6310     1.1770 hc         1 LU0       0.024200
     23 H11         -3.0470     0.9840     1.7920 hc         1 LU0       0.024200
     24 H12          0.4120     0.3490    -1.3380 hn         1 LU0       0.479000
     25 H13          2.4110    -1.2680    -0.2580 hn         1 LU0       0.491500
     26 H14          3.7620    -0.2870     0.1080 hn         1 LU0       0.491500
@<TRIPOS>BOND
     1     1     2 1   
     2     2     3 1   
     3     2     4 1   
     4     4     5 1   
     5     4     9 1   
     6     4    14 1   
     7     5     6 1   
     8     5    15 1   
     9     5    16 1   
    10     6     7 1   
    11     6     8 1   
    12     6    17 1   
    13     7    18 1   
    14     7    19 1   
    15     7    20 1   
    16     8    21 1   
    17     8    22 1   
    18     8    23 1   
    19     9    10 1   
    20     9    24 1   
    21    10    11 2   
    22    10    12 2   
    23    10    13 1   
    24    13    25 1   
    25    13    26 1   
@<TRIPOS>SUBSTRUCTURE
     1 LU0         1 TEMP              0 ****  ****    0 ROOT
