@<TRIPOS>MOLECULE
LU1
   61    65     1     0     0
SMALL
bcc


@<TRIPOS>ATOM
      1 O14         -3.0640    -3.1670    -1.5350 o          1 LU1      -0.647100
      2 C6          -2.7020    -2.3730    -0.6550 c          1 LU1       0.699700
      3 C2          -3.2100    -0.9760    -0.6570 ca         1 LU1      -0.231600
      4 C3          -4.3320    -0.6970    -1.4450 ca         1 LU1       0.131100
      5 O20         -4.9490    -1.6020    -2.2110 oh         1 LU1      -0.533100
      6 C9          -4.8710     0.6010    -1.4440 ca         1 LU1       0.098100
      7 O21         -5.9620     0.8910    -2.1780 oh         1 LU1      -0.494100
      8 C10         -4.2700     1.5960    -0.7020 ca         1 LU1      -0.105000
      9 C4          -2.6080     0.0550     0.0710 ca         1 LU1      -0.086000
     10 C7          -3.1230     1.3400     0.0580 cp         1 LU1      -0.042000
     11 C13         -2.4750     2.4230     0.8230 cp         1 LU1      -0.051000
     12 C17         -3.2370     3.3730     1.5030 ca         1 LU1      -0.094500
     13 C24         -2.6380     4.3890     2.2330 ca         1 LU1      -0.174000
     14 C18         -1.0830     2.5180     0.8890 ca         1 LU1      -0.094500
     15 C25         -0.4690     3.5240     1.6190 ca         1 LU1      -0.174000
     16 C23         -1.2590     4.4440     2.2800 ca         1 LU1       0.135900
     17 F26         -0.6700     5.4240     2.9840 f          1 LU1      -0.144900
     18 N16         -1.8700    -2.7270     0.3270 ns         1 LU1      -0.553900
     19 C27         -1.2040    -4.0140     0.4320 c3         1 LU1       0.128200
     20 C19          0.2670    -3.8400     0.2130 c2         1 LU1      -0.170200
     21 C15          1.1720    -4.0020     1.1720 c2         1 LU1      -0.185200
     22 C12          2.6370    -3.7460     1.0550 c5         1 LU1       0.176300
     23 C11          3.1460    -2.7110     2.0620 c5         1 LU1      -0.155400
     24 C8           4.3380    -2.1150     1.3300 c5         1 LU1       0.106100
     25 O22          5.4590    -2.9620     1.3470 oh         1 LU1      -0.580800
     26 C1           3.8240    -2.1180    -0.1110 c5         1 LU1       0.270800
     27 O5           2.9780    -3.2150    -0.2290 os         1 LU1      -0.391600
     28 N28          3.0960    -0.8890    -0.4200 na         1 LU1      -0.282000
     29 C29          3.6550     0.2540    -0.9090 ca         1 LU1       0.425800
     30 C30          2.6050     1.1670    -1.0260 ca         1 LU1      -0.163200
     31 N31          1.4310     0.5900    -0.6150 nc         1 LU1      -0.566100
     32 C32          1.7660    -0.6170    -0.2650 cd         1 LU1       0.428700
     33 N33          4.9180     0.4840    -1.2220 nb         1 LU1      -0.703000
     34 C36          5.1070     1.7110    -1.6810 ca         1 LU1       0.665900
     35 N35          4.1940     2.6700    -1.8390 nb         1 LU1      -0.732000
     36 C34          2.9250     2.4290    -1.5180 ca         1 LU1       0.525600
     37 C37          1.9080     3.5060    -1.6850 c3         1 LU1      -0.150400
     38 HO20        -4.3890    -2.4170    -2.1890 ho         1 LU1       0.492000
     39 HO21        -6.2360     0.1210    -2.6910 ho         1 LU1       0.448000
     40 H10         -4.6840     2.5960    -0.7450 ha         1 LU1       0.153000
     41 H4          -1.7220    -0.1400     0.6610 ha         1 LU1       0.129000
     42 H17         -4.3180     3.3160     1.4820 ha         1 LU1       0.150500
     43 H24         -3.2370     5.1180     2.7630 ha         1 LU1       0.149500
     44 H18         -0.4600     1.8180     0.3440 ha         1 LU1       0.150500
     45 H25          0.6110     3.5950     1.6650 ha         1 LU1       0.149500
     46 HN16        -1.6920    -2.0760     1.0740 hn         1 LU1       0.320500
     47 H27         -1.4050    -4.4330     1.4180 h1         1 LU1       0.070200
     48 H27A        -1.6360    -4.6860    -0.3070 h1         1 LU1       0.070200
     49 H19          0.5620    -3.5190    -0.7810 ha         1 LU1       0.151000
     50 H15          0.8560    -4.3370     2.1570 ha         1 LU1       0.127000
     51 H12          3.1780    -4.6900     1.1950 h1         1 LU1       0.080700
     52 H11          2.3910    -1.9440     2.2530 hc         1 LU1       0.068200
     53 H11A         3.4110    -3.1540     3.0220 hc         1 LU1       0.068200
     54 H8           4.5820    -1.1030     1.6710 h1         1 LU1       0.073700
     55 HO22         5.7200    -3.1060     2.2620 ho         1 LU1       0.416000
     56 H1           4.6400    -2.1810    -0.8350 h2         1 LU1       0.132700
     57 H32          1.0730    -1.3570     0.1060 h5         1 LU1       0.071800
     58 H36          6.1210     1.9690    -1.9620 h5         1 LU1       0.053100
     59 H37          1.5820     3.8760    -0.7110 hc         1 LU1       0.063700
     60 H37A         2.3160     4.3410    -2.2480 hc         1 LU1       0.063700
     61 H37B         1.0200     3.1310    -2.1930 hc         1 LU1       0.063700
@<TRIPOS>BOND
     1     1     2 2   
     2     2     3 1   
     3     2    18 1   
     4     3     4 ar  
     5     3     9 ar  
     6     4     5 1   
     7     4     6 ar  
     8     5    38 1   
     9     6     7 1   
    10     6     8 ar  
    11     7    39 1   
    12     8    10 ar  
    13     8    40 1   
    14     9    10 ar  
    15     9    41 1   
    16    10    11 1   
    17    11    12 ar  
    18    11    14 ar  
    19    12    13 ar  
    20    12    42 1   
    21    13    16 ar  
    22    13    43 1   
    23    14    15 ar  
    24    14    44 1   
    25    15    16 ar  
    26    15    45 1   
    27    16    17 1   
    28    18    19 1   
    29    18    46 1   
    30    19    20 1   
    31    19    47 1   
    32    19    48 1   
    33    20    21 2   
    34    20    49 1   
    35    21    22 1   
    36    21    50 1   
    37    22    23 1   
    38    22    27 1   
    39    22    51 1   
    40    23    24 1   
    41    23    52 1   
    42    23    53 1   
    43    24    25 1   
    44    24    26 1   
    45    24    54 1   
    46    25    55 1   
    47    26    27 1   
    48    26    28 1   
    49    26    56 1   
    50    28    29 1   
    51    28    32 1   
    52    29    30 ar  
    53    29    33 ar  
    54    30    31 1   
    55    30    36 ar  
    56    31    32 2   
    57    32    57 1   
    58    33    34 ar  
    59    34    35 ar  
    60    34    58 1   
    61    35    36 ar  
    62    36    37 1   
    63    37    59 1   
    64    37    60 1   
    65    37    61 1   
@<TRIPOS>SUBSTRUCTURE
     1 LU1         1 TEMP              0 ****  ****    0 ROOT
