@<TRIPOS>MOLECULE
LU1
   61    65     1     0     0
SMALL
No Charge or Current Charge


@<TRIPOS>ATOM
      1 O14         -3.2840    -2.9680    -1.4310 o          1 LU1      -0.647100
      2 C6          -2.5690    -2.2400    -0.7510 c          1 LU1       0.632700
      3 C2          -2.7690    -0.7400    -0.7010 ca         1 LU1      -0.231600
      4 C3          -3.7090    -0.1130    -1.5490 ca         1 LU1       0.131100
      5 O20         -4.4630    -0.8590    -2.4140 oh         1 LU1      -0.572100
      6 C9          -3.8770     1.2860    -1.5210 ca         1 LU1       0.098100
      7 O21         -4.7830     1.8730    -2.3590 oh         1 LU1      -0.533100
      8 C10         -3.1180     2.0750    -0.6470 ca         1 LU1      -0.087000
      9 C4          -2.0200     0.0760     0.1860 ca         1 LU1      -0.068000
     10 C7          -2.1720     1.4860     0.2290 cp         1 LU1      -0.042000
     11 C13         -1.3510     2.3260     1.1650 cp         1 LU1      -0.051000
     12 C17         -1.8570     3.5400     1.6990 ca         1 LU1      -0.076500
     13 C24         -1.0820     4.3310     2.5670 ca         1 LU1      -0.156000
     14 C18         -0.0390     1.9340     1.5470 ca         1 LU1      -0.076500
     15 C25          0.7350     2.7260     2.4130 ca         1 LU1      -0.156000
     16 C23          0.2110     3.9230     2.9190 ca         1 LU1       0.171000
     17 F26          0.9540     4.6840     3.7520 f          1 LU1      -0.180000
     18 N16         -1.5400    -2.7410     0.0050 ns         1 LU1      -0.486900
     19 C27         -1.1260    -4.1380     0.0700 c3         1 LU1       0.128200
     20 C19          0.3640    -4.1720     0.3200 c2         1 LU1      -0.220200
     21 C15          1.0000    -3.4920     1.2950 c2         1 LU1      -0.235200
     22 C12          2.5260    -3.4660     1.3710 c5         1 LU1       0.199500
     23 C11          2.9790    -2.1720     2.1220 c5         1 LU1      -0.155400
     24 C8           4.1510    -1.6650     1.2490 c5         1 LU1       0.129300
     25 O22          5.3770    -2.3430     1.5760 oh         1 LU1      -0.703000
     26 C1           3.5960    -2.0310    -0.1710 c5         1 LU1       0.323300
     27 O5           3.0510    -3.3560     0.0230 os         1 LU1      -0.438000
     28 N28          2.5540    -1.1720    -0.7570 na         1 LU1      -0.311300
     29 C29          2.4580     0.1990    -0.7890 ca         1 LU1       0.097500
     30 C30          1.3570     0.5130    -1.5500 ca         1 LU1      -0.032600
     31 N31          0.7190    -0.6110    -2.0440 nc         1 LU1      -0.566100
     32 C32          1.4770    -1.6060    -1.5530 cd         1 LU1       0.428700
     33 N33          3.2310     1.1560    -0.2350 nb         1 LU1      -0.177000
     34 C36          2.8540     2.4340    -0.4680 ca         1 LU1       0.139900
     35 N35          1.7890     2.8430    -1.1960 nb         1 LU1      -0.206000
     36 C34          1.0250     1.8730    -1.7460 ca         1 LU1       0.197300
     37 C37         -0.1670     2.3210    -2.5760 c3         1 LU1      -0.150400
     38 HO20        -4.2030    -1.8070    -2.2480 ho         1 LU1       0.531000
     39 HO21        -5.1920     1.1410    -2.8760 ho         1 LU1       0.487000
     40 H10         -3.2540     3.1520    -0.6640 ha         1 LU1       0.135000
     41 H4          -1.3130    -0.3760     0.8740 ha         1 LU1       0.111000
     42 H17         -2.8630     3.8700     1.4520 ha         1 LU1       0.132500
     43 H24         -1.4850     5.2580     2.9690 ha         1 LU1       0.131500
     44 H18          0.3950     1.0190     1.1560 ha         1 LU1       0.132500
     45 H25          1.7390     2.4140     2.6880 ha         1 LU1       0.131500
     46 HN16        -0.9780    -2.0650     0.4990 hn         1 LU1       0.320500
     47 H27         -1.6660    -4.6400     0.8850 h1         1 LU1       0.070200
     48 H27A        -1.3670    -4.6450    -0.8750 h1         1 LU1       0.070200
     49 H19          0.9230    -4.7550    -0.4160 ha         1 LU1       0.201000
     50 H15          0.4170    -2.9220     2.0200 ha         1 LU1       0.177000
     51 H12          2.9350    -4.3750     1.8350 h1         1 LU1       0.080700
     52 H11          2.1840    -1.4180     2.1570 hc         1 LU1       0.068200
     53 H11A         3.2690    -2.3730     3.1590 hc         1 LU1       0.068200
     54 H8           4.2890    -0.5810     1.3620 h1         1 LU1       0.073700
     55 HO22         5.6300    -2.0650     2.4870 ho         1 LU1       0.515000
     56 H1           4.4110    -2.0550    -0.9070 h2         1 LU1       0.132700
     57 H32          1.3170    -2.6590    -1.7470 h5         1 LU1       0.071800
     58 H36          3.4700     3.2140    -0.0230 h5         1 LU1       0.053100
     59 H37         -0.9300     1.5370    -2.6370 hc         1 LU1       0.063700
     60 H37A        -0.6410     3.2090    -2.1430 hc         1 LU1       0.063700
     61 H37B         0.1430     2.5670    -3.5980 hc         1 LU1       0.063700
@<TRIPOS>BOND
     1     1     2 2   
     2     2     3 1   
     3     2    18 1   
     4     3     4 ar  
     5     3     9 ar  
     6     4     5 1   
     7     4     6 ar  
     8     5    38 1   
     9     6     7 1   
    10     6     8 ar  
    11     7    39 1   
    12     8    10 ar  
    13     8    40 1   
    14     9    10 ar  
    15     9    41 1   
    16    10    11 1   
    17    11    12 ar  
    18    11    14 ar  
    19    12    13 ar  
    20    12    42 1   
    21    13    16 ar  
    22    13    43 1   
    23    14    15 ar  
    24    14    44 1   
    25    15    16 ar  
    26    15    45 1   
    27    16    17 1   
    28    18    19 1   
    29    18    46 1   
    30    19    20 1   
    31    19    47 1   
    32    19    48 1   
    33    20    21 2   
    34    20    49 1   
    35    21    22 1   
    36    21    50 1   
    37    22    23 1   
    38    22    27 1   
    39    22    51 1   
    40    23    24 1   
    41    23    52 1   
    42    23    53 1   
    43    24    25 1   
    44    24    26 1   
    45    24    54 1   
    46    25    55 1   
    47    26    27 1   
    48    26    28 1   
    49    26    56 1   
    50    28    29 1   
    51    28    32 1   
    52    29    30 ar  
    53    29    33 ar  
    54    30    31 1   
    55    30    36 ar  
    56    31    32 2   
    57    32    57 1   
    58    33    34 ar  
    59    34    35 ar  
    60    34    58 1   
    61    35    36 ar  
    62    36    37 1   
    63    37    59 1   
    64    37    60 1   
    65    37    61 1   
@<TRIPOS>SUBSTRUCTURE
     1 LU1         1 TEMP              0 ****  ****    0 ROOT
