@<TRIPOS>MOLECULE
LU2
   31    33     1     0     0
SMALL
No Charge or Current Charge


@<TRIPOS>ATOM
      1 C1          -2.2710    -1.7820     0.0120 ca         1 LU2      -0.302000
      2 O1          -4.2800    -3.0740     0.0440 oh         1 LU2      -0.519100
      3 C2          -3.6660    -1.8630     0.0550 ca         1 LU2       0.243100
      4 O2          -4.5690     1.6710     0.1740 oh         1 LU2      -0.536100
      5 C3          -4.4330    -0.6970     0.1090 ca         1 LU2      -0.247000
      6 O3          -2.2970     3.0100     0.1340 o          1 LU2      -0.594100
      7 C4          -3.8060     0.5510     0.1210 ca         1 LU2       0.281100
      8 O4          -0.2740    -0.4810    -0.0190 os         1 LU2      -0.224200
      9 C5          -2.4050     0.6440     0.0780 ca         1 LU2      -0.380600
     10 O5           4.4270    -2.2250    -0.2150 oh         1 LU2      -0.559100
     11 C6          -1.6440    -0.5300     0.0240 ca         1 LU2       0.246100
     12 O6           6.0820    -0.0160    -0.2120 oh         1 LU2      -0.522100
     13 C7          -1.6930     1.9470     0.0880 c          1 LU2       0.617900
     14 C8          -0.2420     1.8770     0.0390 cc         1 LU2      -0.383200
     15 C9           0.4450     0.6840    -0.0130 cd         1 LU2       0.228900
     16 C10          1.9200     0.5050    -0.0650 ca         1 LU2      -0.084800
     17 C11          2.4900    -0.7930    -0.1160 ca         1 LU2      -0.115000
     18 C12          3.8860    -0.9650    -0.1660 ca         1 LU2       0.032100
     19 C13          4.7310     0.1600    -0.1640 ca         1 LU2       0.153100
     20 C14          4.1860     1.4480    -0.1140 ca         1 LU2      -0.135000
     21 C15          2.7910     1.6210    -0.0650 ca         1 LU2      -0.061000
     22 H1          -1.6630    -2.6810    -0.0300 ha         1 LU2       0.133000
     23 HO1         -3.5850    -3.7640     0.0050 ho         1 LU2       0.473000
     24 HO2         -3.9260     2.4250     0.1720 ho         1 LU2       0.524000
     25 H3          -5.5160    -0.7610     0.1430 ha         1 LU2       0.152000
     26 HO5          3.7010    -2.8890    -0.2080 ho         1 LU2       0.478000
     27 HO6          6.2220    -0.9890    -0.2420 ho         1 LU2       0.489000
     28 H8           0.2490     2.8390     0.0480 ha         1 LU2       0.217000
     29 H11          1.8520    -1.6730    -0.1180 ha         1 LU2       0.129000
     30 H14          4.8420     2.3150    -0.1130 ha         1 LU2       0.139000
     31 H15          2.4030     2.6350    -0.0270 ha         1 LU2       0.127000
@<TRIPOS>BOND
     1     1     3 ar  
     2     1    11 ar  
     3     1    22 1   
     4     2     3 1   
     5     2    23 1   
     6     3     5 ar  
     7     4     7 1   
     8     4    24 1   
     9     5     7 ar  
    10     5    25 1   
    11     6    13 2   
    12     7     9 ar  
    13     8    11 1   
    14     8    15 1   
    15     9    11 ar  
    16     9    13 1   
    17    10    18 1   
    18    10    26 1   
    19    12    19 1   
    20    12    27 1   
    21    13    14 1   
    22    14    15 2   
    23    14    28 1   
    24    15    16 1   
    25    16    17 ar  
    26    16    21 ar  
    27    17    18 ar  
    28    17    29 1   
    29    18    19 ar  
    30    19    20 ar  
    31    20    21 ar  
    32    20    30 1   
    33    21    31 1   
@<TRIPOS>SUBSTRUCTURE
     1 LU2         1 TEMP              0 ****  ****    0 ROOT
