@<TRIPOS>MOLECULE
LU2
   31    33     1     0     0
SMALL
bcc


@<TRIPOS>ATOM
      1 C1          -2.1790    -1.7760     0.1080 ca         1 LU2      -0.320000
      2 O1          -4.2260    -3.0060     0.1530 oh         1 LU2      -0.480100
      3 C2          -3.5680    -1.8430     0.1180 ca         1 LU2       0.243100
      4 O2          -4.5090     1.6430     0.0700 oh         1 LU2      -0.497100
      5 C3          -4.3510    -0.6880     0.0940 ca         1 LU2      -0.265000
      6 O3          -2.3090     3.0010    -0.0000 o          1 LU2      -0.594100
      7 C4          -3.7500     0.5520     0.0750 ca         1 LU2       0.281100
      8 O4          -0.2480    -0.4730     0.0580 os         1 LU2      -0.224200
      9 C5          -2.3400     0.6550     0.0600 ca         1 LU2      -0.380600
     10 O5           4.3780    -2.1640    -0.4150 oh         1 LU2      -0.520100
     11 C6          -1.5970    -0.5220     0.0740 ca         1 LU2       0.246100
     12 O6           5.9740    -0.0180    -0.1830 oh         1 LU2      -0.483100
     13 C7          -1.6750     1.9390     0.0100 c          1 LU2       0.617900
     14 C8          -0.2370     1.8770    -0.0400 cc         1 LU2      -0.333200
     15 C9           0.4160     0.6920    -0.0060 cd         1 LU2       0.228900
     16 C10          1.8660     0.5030    -0.0430 ca         1 LU2      -0.084800
     17 C11          2.4110    -0.7760    -0.2070 ca         1 LU2      -0.133000
     18 C12          3.7760    -0.9600    -0.2540 ca         1 LU2       0.032100
     19 C13          4.6440     0.1330    -0.1380 ca         1 LU2       0.153100
     20 C14          4.1060     1.3990     0.0320 ca         1 LU2      -0.153000
     21 C15          2.7360     1.5830     0.0820 ca         1 LU2      -0.079000
     22 H1          -1.5630    -2.6650     0.1270 ha         1 LU2       0.151000
     23 HO1         -3.6200    -3.7520     0.1810 ho         1 LU2       0.434000
     24 HO2         -3.8920     2.4190     0.0710 ho         1 LU2       0.485000
     25 H3          -5.4300    -0.7710     0.1000 ha         1 LU2       0.170000
     26 HO5          3.7360    -2.8780    -0.4160 ho         1 LU2       0.439000
     27 HO6          6.2020    -0.9470    -0.2970 ho         1 LU2       0.450000
     28 H8           0.3110     2.8040    -0.1160 ha         1 LU2       0.167000
     29 H11          1.7620    -1.6370    -0.3070 ha         1 LU2       0.147000
     30 H14          4.7750     2.2430     0.1330 ha         1 LU2       0.157000
     31 H15          2.3590     2.5830     0.2360 ha         1 LU2       0.145000
@<TRIPOS>BOND
     1     1     3 ar  
     2     1    11 ar  
     3     1    22 1   
     4     2     3 1   
     5     2    23 1   
     6     3     5 ar  
     7     4     7 1   
     8     4    24 1   
     9     5     7 ar  
    10     5    25 1   
    11     6    13 2   
    12     7     9 ar  
    13     8    11 1   
    14     8    15 1   
    15     9    11 ar  
    16     9    13 1   
    17    10    18 1   
    18    10    26 1   
    19    12    19 1   
    20    12    27 1   
    21    13    14 1   
    22    14    15 2   
    23    14    28 1   
    24    15    16 1   
    25    16    17 ar  
    26    16    21 ar  
    27    17    18 ar  
    28    17    29 1   
    29    18    19 ar  
    30    19    20 ar  
    31    20    21 ar  
    32    20    30 1   
    33    21    31 1   
@<TRIPOS>SUBSTRUCTURE
     1 LU2         1 TEMP              0 ****  ****    0 ROOT
