@<TRIPOS>MOLECULE
LU3
   13    13     1     0     0
SMALL
No Charge or Current Charge


@<TRIPOS>ATOM
      1 C17         11.3340   -27.2590    -3.1740 cc         1 LU3       0.417700
      2 C20          9.5530   -25.7680    -2.5120 cc         1 LU3      -0.290000
      3 C16         12.2350   -28.4560    -3.4720 c3         1 LU3       0.116500
      4 C19         10.6380   -25.1480    -3.0840 cd         1 LU3       0.274900
      5 N15         13.5470   -28.4780    -2.7410 n8         1 LU3      -1.017200
      6 N18         11.6620   -26.0020    -3.4680 nd         1 LU3      -0.651000
      7 S21          9.7740   -27.4920    -2.4250 ss         1 LU3       0.021600
      8 H2           8.6420   -25.3200    -2.1370 h4         1 LU3       0.158000
      9 H14         11.6870   -29.3780    -3.2330 h1         1 LU3       0.056700
     10 H15         12.4370   -28.4670    -4.5530 h1         1 LU3       0.056700
     11 H16         10.7400   -24.0820    -3.2500 h4         1 LU3       0.038100
     12 H20         14.1250   -29.2510    -3.0990 hn         1 LU3       0.408000
     13 H1          14.0830   -27.6380    -2.9990 hn         1 LU3       0.408000
@<TRIPOS>BOND
     1     1     3 1   
     2     1     6 2   
     3     1     7 1   
     4     2     4 2   
     5     2     7 1   
     6     2     8 1   
     7     3     5 1   
     8     3     9 1   
     9     3    10 1   
    10     4     6 1   
    11     4    11 1   
    12     5    12 1   
    13     5    13 1   
@<TRIPOS>SUBSTRUCTURE
     1 LU3         1 TEMP              0 ****  ****    0 ROOT
