@<TRIPOS>MOLECULE
LU3
   13    13     1     0     0
SMALL
abcg2


@<TRIPOS>ATOM
      1 C17         11.5280   -27.0930    -3.3400 cc         1 LU3       0.417700
      2 C20          9.8890   -25.7310    -2.1990 cc         1 LU3      -0.290000
      3 C16         12.5080   -28.1580    -3.7120 c3         1 LU3       0.116500
      4 C19         10.1910   -25.3590    -3.4690 cd         1 LU3       0.274900
      5 N15         13.0200   -28.7970    -2.5170 n8         1 LU3      -1.017200
      6 N18         11.1190   -26.1340    -4.1050 nd         1 LU3      -0.651000
      7 S21         10.8080   -27.1140    -1.7690 ss         1 LU3       0.021600
      8 H2           9.2010   -25.2640    -1.5120 h4         1 LU3       0.158000
      9 H14         11.9860   -28.9090    -4.3110 h1         1 LU3       0.056700
     10 H15         13.2680   -27.7160    -4.3660 h1         1 LU3       0.056700
     11 H16          9.7580   -24.5120    -3.9830 h4         1 LU3       0.038100
     12 H20         13.4090   -29.7020    -2.7450 hn         1 LU3       0.408000
     13 H1          13.7720   -28.2500    -2.1200 hn         1 LU3       0.408000
@<TRIPOS>BOND
     1     1     3 1   
     2     1     6 2   
     3     1     7 1   
     4     2     4 2   
     5     2     7 1   
     6     2     8 1   
     7     3     5 1   
     8     3     9 1   
     9     3    10 1   
    10     4     6 1   
    11     4    11 1   
    12     5    12 1   
    13     5    13 1   
@<TRIPOS>SUBSTRUCTURE
     1 LU3         1 TEMP              0 ****  ****    0 ROOT
