@<TRIPOS>MOLECULE
LU5
   51    54     1     0     0
SMALL
No Charge or Current Charge


@<TRIPOS>ATOM
      1 C10         15.8940   -10.0750    30.9930 ca         1 LU5      -0.056000
      2 C13         19.2060    -8.1870    31.4180 c3         1 LU5      -0.143400
      3 C17         13.9570    -9.3970    29.6800 ca         1 LU5      -0.075000
      4 C21         17.8640   -13.7460    33.6560 ca         1 LU5      -0.146000
      5 C22         18.8230   -14.5290    34.3250 ca         1 LU5       0.000000
      6 C24         21.0020   -13.6870    33.2780 c          1 LU5       0.611100
      7 C28         15.6560   -18.8470    37.2580 cc         1 LU5       0.048500
      8 C02         15.5100   -17.7020    36.3150 c          1 LU5       0.543600
      9 C04         17.0450   -15.9460    35.2210 ca         1 LU5       0.005000
     10 C05         16.0920   -15.1690    34.5280 ca         1 LU5      -0.099000
     11 C06         16.4840   -14.0600    33.7410 ca         1 LU5      -0.108600
     12 C07         15.4190   -13.2410    33.0250 c          1 LU5       0.614700
     13 C09         15.2220   -11.2600    31.3910 ca         1 LU5      -0.036000
     14 C11         17.2060    -9.7720    31.4310 ca         1 LU5      -0.110000
     15 C12         17.8000    -8.5750    30.9940 ca         1 LU5       0.280300
     16 C16         15.2600    -9.1360    30.1350 ca         1 LU5       0.205000
     17 C18         13.2890   -10.5700    30.0600 ca         1 LU5      -0.094000
     18 C19         13.9160   -11.4970    30.9060 ca         1 LU5      -0.085000
     19 C25         20.4880   -13.7430    31.8360 c3         1 LU5      -0.178100
     20 C27         18.4040   -15.6080    35.1170 ca         1 LU5      -0.188000
     21 C29         16.8050   -19.3100    37.8530 cd         1 LU5      -0.138000
     22 C30         16.4320   -20.4080    38.6570 cd         1 LU5      -0.200000
     23 C31         15.0800   -20.5730    38.5240 cc         1 LU5       0.154900
     24 N08         15.8880   -12.1950    32.2370 ns         1 LU5      -0.165000
     25 N14         17.1460    -7.7230    30.1730 nb         1 LU5      -0.305000
     26 N15         15.8970    -8.0010    29.7530 nb         1 LU5      -0.289000
     27 N23         20.2100   -14.2340    34.2760 ns         1 LU5      -0.174000
     28 O01         14.4320   -17.3670    35.8350 o          1 LU5      -0.540100
     29 O20         14.2260   -13.4920    33.1580 o          1 LU5      -0.555100
     30 O26         22.1210   -13.2580    33.5300 o          1 LU5      -0.584100
     31 O32         14.5840   -19.6180    37.6640 os         1 LU5      -0.186000
     32 H1          19.3560    -7.1020    31.3730 hc         1 LU5       0.054700
     33 H2          19.4100    -8.5060    32.4460 hc         1 LU5       0.054700
     34 H3          19.9500    -8.6570    30.7650 hc         1 LU5       0.054700
     35 H4          13.4640    -8.6850    29.0230 ha         1 LU5       0.140000
     36 H5          18.1960   -12.8790    33.0960 ha         1 LU5       0.125000
     37 H6          15.0350   -15.4070    34.5980 ha         1 LU5       0.175000
     38 H7          17.7630   -10.4280    32.0920 ha         1 LU5       0.125000
     39 H9          12.2830   -10.7640    29.6930 ha         1 LU5       0.125000
     40 H10         13.3760   -12.4040    31.1580 ha         1 LU5       0.133000
     41 H11         21.3160   -13.7960    31.1190 hc         1 LU5       0.066700
     42 H12         19.7720   -14.5610    31.7010 hc         1 LU5       0.066700
     43 H13         19.9210   -12.8280    31.6350 hc         1 LU5       0.066700
     44 H14         19.1470   -16.1980    35.6490 ha         1 LU5       0.120000
     45 H15         17.8100   -18.9160    37.7350 ha         1 LU5       0.139000
     46 H16         17.0890   -21.0160    39.2710 ha         1 LU5       0.150000
     47 H17         14.3860   -21.2820    38.9540 h4         1 LU5       0.062100
     48 H18         17.5140   -17.4690    36.5060 hn         1 LU5       0.157000
     49 H19         16.8910   -12.0880    32.2500 hn         1 LU5       0.160000
     50 H21         20.6800   -14.3300    35.1670 hn         1 LU5       0.157000
     51 N03         16.7150   -17.0630    36.0370 ns         1 LU5      -0.142000
@<TRIPOS>BOND
     1     1    13 ar  
     2     1    14 ar  
     3     1    16 ar  
     4     2    15 1   
     5     2    32 1   
     6     2    33 1   
     7     2    34 1   
     8     3    16 ar  
     9     3    17 ar  
    10     3    35 1   
    11     4     5 ar  
    12     4    11 ar  
    13     4    36 1   
    14     5    20 ar  
    15     5    27 1   
    16     6    19 1   
    17     6    27 1   
    18     6    30 2   
    19     7     8 1   
    20     7    21 2   
    21     7    31 1   
    22     8    28 2   
    23     8    51 1   
    24     9    10 ar  
    25     9    20 ar  
    26     9    51 1   
    27    10    11 ar  
    28    10    37 1   
    29    11    12 1   
    30    12    24 1   
    31    12    29 2   
    32    13    18 ar  
    33    13    24 1   
    34    14    15 ar  
    35    14    38 1   
    36    15    25 ar  
    37    16    26 ar  
    38    17    18 ar  
    39    17    39 1   
    40    18    40 1   
    41    19    41 1   
    42    19    42 1   
    43    19    43 1   
    44    20    44 1   
    45    21    22 1   
    46    21    45 1   
    47    22    23 2   
    48    22    46 1   
    49    23    31 1   
    50    23    47 1   
    51    24    49 1   
    52    25    26 ar  
    53    27    50 1   
    54    48    51 1   
@<TRIPOS>SUBSTRUCTURE
     1 LU5         1 TEMP              0 ****  ****    0 ROOT
