@<TRIPOS>MOLECULE
LU5
   51    54     1     0     0
SMALL
abcg2


@<TRIPOS>ATOM
      1 C10         15.8320   -10.0010    31.4520 ca         1 LU5      -0.056000
      2 C13         17.1520    -7.5240    33.9820 c3         1 LU5      -0.143400
      3 C17         14.3550    -9.4730    29.5650 ca         1 LU5      -0.075000
      4 C21         18.3810   -14.3340    32.6910 ca         1 LU5      -0.146000
      5 C22         19.2490   -15.1770    33.3780 ca         1 LU5       0.000000
      6 C24         21.1880   -15.4480    31.8310 c          1 LU5       0.611100
      7 C28         15.8430   -17.7050    37.6550 cc         1 LU5       0.048500
      8 C02         15.8620   -16.7650    36.5260 c          1 LU5       0.543600
      9 C04         17.4410   -15.8630    34.8350 ca         1 LU5       0.005000
     10 C05         16.5600   -15.0580    34.1170 ca         1 LU5      -0.099000
     11 C06         17.0430   -14.2950    33.0590 ca         1 LU5      -0.108600
     12 C07         16.0550   -13.4440    32.3280 c          1 LU5       0.614700
     13 C09         15.8080   -11.3700    31.0620 ca         1 LU5      -0.036000
     14 C11         16.5120    -9.4960    32.5630 ca         1 LU5      -0.110000
     15 C12         16.4570    -8.1440    32.8120 ca         1 LU5       0.280300
     16 C16         15.1160    -9.0540    30.6820 ca         1 LU5       0.205000
     17 C18         14.3300   -10.7950    29.2340 ca         1 LU5      -0.094000
     18 C19         15.0660   -11.7460    29.9770 ca         1 LU5      -0.085000
     19 C25         20.2900   -15.6350    30.6370 c3         1 LU5      -0.178100
     20 C27         18.7810   -15.9240    34.4470 ca         1 LU5      -0.188000
     21 C29         16.7710   -18.4980    38.2580 cd         1 LU5      -0.138000
     22 C30         16.0960   -19.1670    39.3120 cd         1 LU5      -0.200000
     23 C31         14.8130   -18.7280    39.2660 cc         1 LU5       0.154900
     24 N08         16.5590   -12.2950    31.8030 ns         1 LU5      -0.165000
     25 N14         15.7670    -7.3050    32.0100 nb         1 LU5      -0.305000
     26 N15         15.1180    -7.7420    30.9900 nb         1 LU5      -0.289000
     27 N23         20.6110   -15.2550    33.0500 ns         1 LU5      -0.174000
     28 O01         14.8610   -16.1600    36.1900 o          1 LU5      -0.540100
     29 O20         14.8860   -13.7620    32.2310 o          1 LU5      -0.555100
     30 O26         22.4030   -15.4770    31.7320 o          1 LU5      -0.584100
     31 O32         14.6510   -17.8470    38.2710 os         1 LU5      -0.186000
     32 H1          16.9970    -6.4480    33.9940 hc         1 LU5       0.054700
     33 H2          16.7780    -7.9350    34.9200 hc         1 LU5       0.054700
     34 H3          18.2250    -7.7180    33.9490 hc         1 LU5       0.054700
     35 H4          13.8080    -8.7330    28.9970 ha         1 LU5       0.140000
     36 H5          18.7540   -13.7330    31.8730 ha         1 LU5       0.125000
     37 H6          15.5170   -15.0050    34.3760 ha         1 LU5       0.175000
     38 H7          17.0700   -10.1420    33.2290 ha         1 LU5       0.125000
     39 H9          13.7560   -11.1320    28.3820 ha         1 LU5       0.125000
     40 H10         15.0500   -12.7800    29.6610 ha         1 LU5       0.133000
     41 H11         20.8210   -16.2250    29.8930 hc         1 LU5       0.066700
     42 H12         19.3510   -16.1290    30.8760 hc         1 LU5       0.066700
     43 H13         20.0580   -14.6710    30.1830 hc         1 LU5       0.066700
     44 H14         19.4680   -16.5730    34.9780 ha         1 LU5       0.120000
     45 H15         17.8130   -18.6060    38.0000 ha         1 LU5       0.139000
     46 H16         16.5100   -19.8780    40.0090 ha         1 LU5       0.150000
     47 H17         13.9420   -18.9530    39.8610 h4         1 LU5       0.062100
     48 H18         17.8260   -17.2090    36.3050 hn         1 LU5       0.157000
     49 H19         17.4990   -12.0280    32.0520 hn         1 LU5       0.160000
     50 H21         21.2560   -15.2680    33.8280 hn         1 LU5       0.157000
     51 N03         17.0760   -16.6520    35.9240 ns         1 LU5      -0.142000
@<TRIPOS>BOND
     1     1    13 ar  
     2     1    14 ar  
     3     1    16 ar  
     4     2    15 1   
     5     2    32 1   
     6     2    33 1   
     7     2    34 1   
     8     3    16 ar  
     9     3    17 ar  
    10     3    35 1   
    11     4     5 ar  
    12     4    11 ar  
    13     4    36 1   
    14     5    20 ar  
    15     5    27 1   
    16     6    19 1   
    17     6    27 1   
    18     6    30 2   
    19     7     8 1   
    20     7    21 2   
    21     7    31 1   
    22     8    28 2   
    23     8    51 1   
    24     9    10 ar  
    25     9    20 ar  
    26     9    51 1   
    27    10    11 ar  
    28    10    37 1   
    29    11    12 1   
    30    12    24 1   
    31    12    29 2   
    32    13    18 ar  
    33    13    24 1   
    34    14    15 ar  
    35    14    38 1   
    36    15    25 ar  
    37    16    26 ar  
    38    17    18 ar  
    39    17    39 1   
    40    18    40 1   
    41    19    41 1   
    42    19    42 1   
    43    19    43 1   
    44    20    44 1   
    45    21    22 1   
    46    21    45 1   
    47    22    23 2   
    48    22    46 1   
    49    23    31 1   
    50    23    47 1   
    51    24    49 1   
    52    25    26 ar  
    53    27    50 1   
    54    48    51 1   
@<TRIPOS>SUBSTRUCTURE
     1 LU5         1 TEMP              0 ****  ****    0 ROOT
