@<TRIPOS>MOLECULE
LU7
   97    97     1     0     0
SMALL
abcg2


@<TRIPOS>ATOM
      1 OAH        -10.2550     3.4780     0.4230 oh         1 LU7      -0.572100
      2 CAD        -11.4760     3.0260     0.7600 ca         1 LU7       0.220100
      3 CAE        -12.2310     3.8070     1.6320 ca         1 LU7      -0.256000
      4 CAF        -13.5040     3.4030     2.0190 ca         1 LU7       0.180100
      5 OAG        -14.2630     4.1330     2.8590 oh         1 LU7      -0.533100
      6 CAA        -14.0260     2.2030     1.5440 ca         1 LU7      -0.189000
      7 CAB        -13.2680     1.4440     0.6680 ca         1 LU7      -0.031000
      8 CAC        -12.0000     1.8310     0.2460 ca         1 LU7      -0.221300
      9 CAI        -11.2700     1.0200    -0.7970 c3         1 LU7      -0.094100
     10 CAJ         -9.9800     0.4220    -0.2900 c          1 LU7       0.611100
     11 OAK         -9.0690     1.1370     0.1370 o          1 LU7      -0.634100
     12 N           -9.8700    -0.9050    -0.3240 ns         1 LU7      -0.464900
     13 CA          -8.6470    -1.5730     0.0470 c3         1 LU7       0.044700
     14 CB          -8.8740    -3.0790     0.0810 c3         1 LU7      -0.180400
     15 CG          -9.8620    -3.4770     1.1650 c          1 LU7       0.601100
     16 OD1         -9.8370    -2.9600     2.2720 o          1 LU7      -0.591100
     17 ND2        -10.7290    -4.4330     0.8150 nt         1 LU7      -0.608000
     18 C           -7.5400    -1.2470    -0.9600 c          1 LU7       0.586100
     19 O           -7.7890    -1.0400    -2.1370 o          1 LU7      -0.602100
     20 NAT         -6.3030    -1.2660    -0.4560 ns         1 LU7      -0.497900
     21 CAU         -5.1220    -1.0700    -1.2740 c3         1 LU7       0.103000
     22 CAV         -3.8550    -1.2300    -0.4510 c3         1 LU7      -0.094400
     23 CAW         -2.6080    -1.0550    -1.3070 c3         1 LU7      -0.072400
     24 CAX         -1.3140    -1.1920    -0.5150 c3         1 LU7      -0.078400
     25 CAY         -0.0870    -1.0300    -1.3970 c3         1 LU7       0.158800
     26 NAZ          1.1450    -1.1420    -0.6410 n7         1 LU7      -0.856400
     27 CBA          2.3220    -1.0090    -1.4790 c3         1 LU7       0.158800
     28 CBB          3.6080    -1.1390    -0.6780 c3         1 LU7      -0.081400
     29 CBC          4.8360    -0.9950    -1.5620 c3         1 LU7       0.158800
     30 NBD          6.0660    -1.1040    -0.8010 n7         1 LU7      -0.857400
     31 CBE          7.2440    -0.9800    -1.6360 c3         1 LU7       0.161800
     32 CBF          8.5220    -1.0940    -0.8210 c3         1 LU7      -0.098400
     33 CBG          9.7500    -0.9660    -1.7080 c3         1 LU7       0.105000
     34 NBH         10.9640    -1.0780    -0.9270 ns         1 LU7      -0.503900
     35 CBI         12.1820    -0.9070    -1.4530 c          1 LU7       0.605100
     36 OBJ         12.3640    -0.6540    -2.6380 o          1 LU7      -0.603100
     37 CBK         13.3480    -0.9980    -0.4780 c3         1 LU7       0.089500
     38 NBS         14.3740    -1.8260    -1.0870 n8         1 LU7      -0.986200
     39 CBL         13.7790     0.4290    -0.1060 c3         1 LU7      -0.115400
     40 CBM         14.8860     0.4620     0.9380 c3         1 LU7      -0.088400
     41 CBN         15.2840     1.8850     1.2960 c3         1 LU7       0.211800
     42 NBO         16.3480     1.8800     2.2750 nu         1 LU7      -0.952400
     43 CBP         16.9450     3.0430     2.6880 c2         1 LU7       0.787100
     44 NBR         16.7810     4.2130     2.1910 n2         1 LU7      -0.895100
     45 NBQ         17.7930     2.8650     3.7610 nv         1 LU7      -1.018200
     46 HAH1        -9.6710     2.7100     0.2150 ho         1 LU7       0.516000
     47 HAE1       -11.8050     4.7290     2.0130 ha         1 LU7       0.128000
     48 HAG1       -13.8050     4.9420     3.1110 ho         1 LU7       0.467000
     49 HAA1       -15.0130     1.8790     1.8450 ha         1 LU7       0.129000
     50 HAB1       -13.6870     0.5220     0.2820 ha         1 LU7       0.105000
     51 HAI1       -11.9330     0.2430    -1.1770 hc         1 LU7       0.068700
     52 HAI2       -11.0100     1.6480    -1.6560 hc         1 LU7       0.068700
     53 H          -10.6010    -1.4390    -0.7670 hn         1 LU7       0.323500
     54 HA          -8.3490    -1.2430     1.0450 h1         1 LU7       0.102700
     55 HB2         -9.1840    -3.4380    -0.9040 hc         1 LU7       0.073200
     56 HB3         -7.9270    -3.5740     0.3080 hc         1 LU7       0.073200
     57 HD23       -10.7220    -4.8530    -0.0980 hn         1 LU7       0.317000
     58 HD22       -11.3830    -4.8010     1.4880 hn         1 LU7       0.317000
     59 HAT1        -6.1800    -1.3900     0.5360 hn         1 LU7       0.320500
     60 HAU1        -5.1230    -1.7940    -2.0940 h1         1 LU7       0.053200
     61 HAU2        -5.1440    -0.0750    -1.7290 h1         1 LU7       0.053200
     62 HAV1        -3.8500    -0.4970     0.3620 hc         1 LU7       0.045200
     63 HAV2        -3.8450    -2.2200     0.0170 hc         1 LU7       0.045200
     64 HAW1        -2.6190    -1.7930    -2.1160 hc         1 LU7       0.042700
     65 HAW2        -2.6340    -0.0730    -1.7900 hc         1 LU7       0.042700
     66 HAX2        -1.2870    -0.4450     0.2840 hc         1 LU7       0.046700
     67 HAX1        -1.2880    -2.1720    -0.0270 hc         1 LU7       0.046700
     68 HAY2        -0.1380    -1.7570    -2.2250 h1         1 LU7       0.028700
     69 HAY1        -0.1090    -0.0400    -1.8660 h1         1 LU7       0.028700
     70 H1           1.1680    -2.0520    -0.1920 hn         1 LU7       0.403000
     71 HBA2         2.3320    -1.7390    -2.3060 h1         1 LU7       0.028200
     72 HBA1         2.2930    -0.0210    -1.9510 h1         1 LU7       0.028200
     73 HBB1         3.6290    -0.3810     0.1090 hc         1 LU7       0.053200
     74 HBB2         3.6290    -2.1160    -0.1800 hc         1 LU7       0.053200
     75 HBC1         4.7850    -1.7320    -2.3810 h1         1 LU7       0.029200
     76 HBC2         4.8210    -0.0100    -2.0420 h1         1 LU7       0.029200
     77 H2           6.0850    -2.0100    -0.3450 hn         1 LU7       0.404000
     78 HBE2         7.2630    -1.7220    -2.4510 h1         1 LU7       0.033200
     79 HBE1         7.2150     0.0010    -2.1220 h1         1 LU7       0.033200
     80 HBF1         8.5330    -0.3180    -0.0510 hc         1 LU7       0.050200
     81 HBF2         8.5430    -2.0600    -0.3050 hc         1 LU7       0.050200
     82 HBG1         9.7310    -1.7390    -2.4820 h1         1 LU7       0.053200
     83 HBG2         9.7350    -0.0020    -2.2240 h1         1 LU7       0.053200
     84 HBH1        10.8840    -1.3170     0.0480 hn         1 LU7       0.313500
     85 HBK1        13.0150    -1.5020     0.4350 h1         1 LU7       0.058700
     86 HBS2        14.7360    -1.3600    -1.9100 hn         1 LU7       0.408000
     87 H3          15.1550    -1.9290    -0.4520 hn         1 LU7       0.408000
     88 HBL2        14.1070     0.9490    -1.0120 hc         1 LU7       0.058200
     89 HBL1        12.9100     0.9760     0.2740 hc         1 LU7       0.058200
     90 HBM2        14.5510    -0.0630     1.8390 hc         1 LU7       0.045200
     91 HBM1        15.7710    -0.0660     0.5730 hc         1 LU7       0.045200
     92 HBN2        15.6320     2.3940     0.3940 h1         1 LU7       0.041700
     93 HBN1        14.4030     2.4360     1.6530 h1         1 LU7       0.041700
     94 HBO1        16.2790     1.1560     2.9740 hn         1 LU7       0.470000
     95 HBR2        16.0530     4.2260     1.4880 hn         1 LU7       0.384400
     96 HBQ1        18.3000     1.9940     3.7820 hn         1 LU7       0.459000
     97 H4          18.3980     3.6540     3.9230 hn         1 LU7       0.459000
@<TRIPOS>BOND
     1     1     2 1   
     2     1    46 1   
     3     2     3 ar  
     4     2     8 ar  
     5     3     4 ar  
     6     3    47 1   
     7     4     5 1   
     8     4     6 ar  
     9     5    48 1   
    10     6     7 ar  
    11     6    49 1   
    12     7     8 ar  
    13     7    50 1   
    14     8     9 1   
    15     9    10 1   
    16     9    51 1   
    17     9    52 1   
    18    10    11 2   
    19    10    12 1   
    20    12    13 1   
    21    12    53 1   
    22    13    14 1   
    23    13    18 1   
    24    13    54 1   
    25    14    15 1   
    26    14    55 1   
    27    14    56 1   
    28    15    16 2   
    29    15    17 1   
    30    17    57 1   
    31    17    58 1   
    32    18    19 2   
    33    18    20 1   
    34    20    21 1   
    35    20    59 1   
    36    21    22 1   
    37    21    60 1   
    38    21    61 1   
    39    22    23 1   
    40    22    62 1   
    41    22    63 1   
    42    23    24 1   
    43    23    64 1   
    44    23    65 1   
    45    24    25 1   
    46    24    66 1   
    47    24    67 1   
    48    25    26 1   
    49    25    68 1   
    50    25    69 1   
    51    26    27 1   
    52    26    70 1   
    53    27    28 1   
    54    27    71 1   
    55    27    72 1   
    56    28    29 1   
    57    28    73 1   
    58    28    74 1   
    59    29    30 1   
    60    29    75 1   
    61    29    76 1   
    62    30    31 1   
    63    30    77 1   
    64    31    32 1   
    65    31    78 1   
    66    31    79 1   
    67    32    33 1   
    68    32    80 1   
    69    32    81 1   
    70    33    34 1   
    71    33    82 1   
    72    33    83 1   
    73    34    35 1   
    74    34    84 1   
    75    35    36 2   
    76    35    37 1   
    77    37    38 1   
    78    37    39 1   
    79    37    85 1   
    80    38    86 1   
    81    38    87 1   
    82    39    40 1   
    83    39    88 1   
    84    39    89 1   
    85    40    41 1   
    86    40    90 1   
    87    40    91 1   
    88    41    42 1   
    89    41    92 1   
    90    41    93 1   
    91    42    43 1   
    92    42    94 1   
    93    43    44 2   
    94    43    45 1   
    95    44    95 1   
    96    45    96 1   
    97    45    97 1   
@<TRIPOS>SUBSTRUCTURE
     1 LU7         1 TEMP              0 ****  ****    0 ROOT
