@<TRIPOS>MOLECULE
LU7
   97    97     1     0     0
SMALL
No Charge or Current Charge


@<TRIPOS>ATOM
      1 OAH        -12.8010     2.4700     2.0100 oh         1 LU7      -0.572100
      2 CAD        -13.4440     1.3710     1.5290 ca         1 LU7       0.220100
      3 CAE        -14.4440     0.7890     2.3180 ca         1 LU7      -0.256000
      4 CAF        -15.1140    -0.3550     1.8690 ca         1 LU7       0.180100
      5 OAG        -16.0830    -0.9250     2.6360 oh         1 LU7      -0.533100
      6 CAA        -14.7890    -0.9170     0.6290 ca         1 LU7      -0.189000
      7 CAB        -13.7950    -0.3330    -0.1720 ca         1 LU7      -0.031000
      8 CAC        -13.1120     0.8200     0.2690 ca         1 LU7      -0.221300
      9 CAI        -12.0500     1.4530    -0.6460 c3         1 LU7      -0.094100
     10 CAJ        -10.6660     1.4520     0.0100 c          1 LU7       0.611100
     11 OAK        -10.3900     2.2350     0.9080 o          1 LU7      -0.634100
     12 N           -9.7830     0.5000    -0.4440 ns         1 LU7      -0.464900
     13 CA          -8.4260     0.2670     0.0990 c3         1 LU7       0.044700
     14 CB          -8.4480    -0.8450     1.1850 c3         1 LU7      -0.180400
     15 CG          -9.2850    -0.4600     2.4050 c          1 LU7       0.601100
     16 OD1         -8.8620     0.2440     3.3050 o          1 LU7      -0.591100
     17 ND2        -10.5340    -0.9680     2.4610 nt         1 LU7      -0.608000
     18 C           -7.4380    -0.0720    -1.0560 c          1 LU7       0.586100
     19 O           -7.8040    -0.3430    -2.1930 o          1 LU7      -0.602100
     20 NAT         -6.1020    -0.0430    -0.7150 ns         1 LU7      -0.497900
     21 CAU         -5.0100    -0.3350    -1.6430 c3         1 LU7       0.103000
     22 CAV         -3.6430    -0.3220    -0.9320 c3         1 LU7      -0.094400
     23 CAW         -2.4680    -0.6290    -1.8860 c3         1 LU7      -0.072400
     24 CAX         -1.0940    -0.6170    -1.1790 c3         1 LU7      -0.078400
     25 CAY          0.0750    -0.9230    -2.1360 c3         1 LU7       0.158800
     26 NAZ          1.3540    -0.8920    -1.4050 n7         1 LU7      -0.856400
     27 CBA          2.5490    -1.1580    -2.2260 c3         1 LU7       0.158800
     28 CBB          3.8220    -1.0810    -1.3610 c3         1 LU7      -0.081400
     29 CBC          5.1020    -1.3460    -2.1780 c3         1 LU7       0.158800
     30 NBD          6.2910    -1.2550    -1.3120 n7         1 LU7      -0.857400
     31 CBE          7.5790    -1.4730    -1.9930 c3         1 LU7       0.161800
     32 CBF          8.7390    -1.3330    -0.9900 c3         1 LU7      -0.098400
     33 CBG         10.1150    -1.5410    -1.6480 c3         1 LU7       0.105000
     34 NBH         11.2050    -1.4020    -0.6820 ns         1 LU7      -0.503900
     35 CBI         12.5440    -1.4900    -1.0030 c          1 LU7       0.605100
     36 OBJ         12.9170    -1.7080    -2.1500 o          1 LU7      -0.603100
     37 CBK         13.5410    -1.3080     0.2040 c3         1 LU7       0.089500
     38 NBS         14.4000    -2.5010     0.5050 n8         1 LU7      -0.986200
     39 CBL         14.4230    -0.0470     0.0080 c3         1 LU7      -0.115400
     40 CBM         15.2150     0.3900     1.2680 c3         1 LU7      -0.088400
     41 CBN         16.0160     1.6900     1.0500 c3         1 LU7       0.211800
     42 NBO         16.7450     2.0540     2.2740 nu         1 LU7      -0.952400
     43 CBP         17.4690     3.1470     2.4220 c2         1 LU7       0.787100
     44 NBR         17.9660     3.7670     1.4710 n2         1 LU7      -0.895100
     45 NBQ         17.9990     3.0400     3.6020 nv         1 LU7      -1.018200
     46 HAH1       -11.8940     2.4880     1.6020 ho         1 LU7       0.516000
     47 HAE1       -14.6870     1.2280     3.2810 ha         1 LU7       0.128000
     48 HAG1       -16.1730    -0.3950     3.4570 ho         1 LU7       0.467000
     49 HAA1       -15.3120    -1.8050     0.2830 ha         1 LU7       0.129000
     50 HAB1       -13.5610    -0.7780    -1.1370 ha         1 LU7       0.105000
     51 HAI1       -11.9990     0.9050    -1.5940 hc         1 LU7       0.068700
     52 HAI2       -12.3320     2.4920    -0.8560 hc         1 LU7       0.068700
     53 H          -10.0930    -0.0780    -1.2180 hn         1 LU7       0.323500
     54 HA          -8.0600     1.1980     0.5530 h1         1 LU7       0.102700
     55 HB2         -8.8620    -1.7510     0.7250 hc         1 LU7       0.073200
     56 HB3         -7.4230    -1.0340     1.5230 hc         1 LU7       0.073200
     57 HD23       -10.8770    -1.5550     1.7160 hn         1 LU7       0.317000
     58 HD22       -11.1220    -0.7460     3.2500 hn         1 LU7       0.317000
     59 HAT1        -5.8730     0.1950     0.2440 hn         1 LU7       0.320500
     60 HAU1        -5.1800    -1.3220    -2.0930 h1         1 LU7       0.053200
     61 HAU2        -5.0160     0.4160    -2.4440 h1         1 LU7       0.053200
     62 HAV1        -3.4870     0.6610    -0.4710 hc         1 LU7       0.045200
     63 HAV2        -3.6530    -1.0620    -0.1220 hc         1 LU7       0.045200
     64 HAW1        -2.6260    -1.6120    -2.3490 hc         1 LU7       0.042700
     65 HAW2        -2.4610     0.1090    -2.6980 hc         1 LU7       0.042700
     66 HAX2        -0.9350     0.3660    -0.7190 hc         1 LU7       0.046700
     67 HAX1        -1.1010    -1.3560    -0.3680 hc         1 LU7       0.046700
     68 HAY2        -0.0820    -1.9120    -2.5900 h1         1 LU7       0.028700
     69 HAY1         0.0800    -0.1790    -2.9450 h1         1 LU7       0.028700
     70 H1           1.3130    -1.5990    -0.6620 hn         1 LU7       0.403000
     71 HBA2         2.4850    -2.1560    -2.6810 h1         1 LU7       0.028200
     72 HBA1         2.6240    -0.4220    -3.0390 h1         1 LU7       0.028200
     73 HBB1         3.8870    -0.0860    -0.9030 hc         1 LU7       0.053200
     74 HBB2         3.7530    -1.8130    -0.5480 hc         1 LU7       0.053200
     75 HBC1         5.0360    -2.3440    -2.6330 h1         1 LU7       0.029200
     76 HBC2         5.1660    -0.6100    -2.9910 h1         1 LU7       0.029200
     77 H2           6.2000    -1.9580    -0.5680 hn         1 LU7       0.404000
     78 HBE2         7.6100    -2.4760    -2.4420 h1         1 LU7       0.033200
     79 HBE1         7.7130    -0.7400    -2.8010 h1         1 LU7       0.033200
     80 HBF1         8.7050    -0.3350    -0.5360 hc         1 LU7       0.050200
     81 HBF2         8.6120    -2.0650    -0.1830 hc         1 LU7       0.050200
     82 HBG1        10.1630    -2.5440    -2.0930 h1         1 LU7       0.053200
     83 HBG2        10.2540    -0.8020    -2.4490 h1         1 LU7       0.053200
     84 HBH1        10.9750    -1.2350     0.2910 hn         1 LU7       0.313500
     85 HBK1        12.9190    -1.1310     1.0930 h1         1 LU7       0.058700
     86 HBS2        14.9780    -2.7130    -0.3180 hn         1 LU7       0.408000
     87 H3          15.0890    -2.2480     1.2240 hn         1 LU7       0.408000
     88 HBL2        15.1180    -0.2100    -0.8250 hc         1 LU7       0.058200
     89 HBL1        13.7710     0.7840    -0.2930 hc         1 LU7       0.058200
     90 HBM2        14.5140     0.5350     2.1000 hc         1 LU7       0.045200
     91 HBM1        15.9100    -0.4050     1.5630 hc         1 LU7       0.045200
     92 HBN2        16.7210     1.5420     0.2190 h1         1 LU7       0.041700
     93 HBN1        15.3240     2.4970     0.7700 h1         1 LU7       0.041700
     94 HBO1        16.2970     1.7900     3.1440 hn         1 LU7       0.470000
     95 HBR2        17.4850     3.4190     0.6370 hn         1 LU7       0.384400
     96 HBQ1        18.2390     2.0760     3.7670 hn         1 LU7       0.459000
     97 H4          18.7950     3.6560     3.6780 hn         1 LU7       0.459000
@<TRIPOS>BOND
     1     1     2 1   
     2     1    46 1   
     3     2     3 ar  
     4     2     8 ar  
     5     3     4 ar  
     6     3    47 1   
     7     4     5 1   
     8     4     6 ar  
     9     5    48 1   
    10     6     7 ar  
    11     6    49 1   
    12     7     8 ar  
    13     7    50 1   
    14     8     9 1   
    15     9    10 1   
    16     9    51 1   
    17     9    52 1   
    18    10    11 2   
    19    10    12 1   
    20    12    13 1   
    21    12    53 1   
    22    13    14 1   
    23    13    18 1   
    24    13    54 1   
    25    14    15 1   
    26    14    55 1   
    27    14    56 1   
    28    15    16 2   
    29    15    17 1   
    30    17    57 1   
    31    17    58 1   
    32    18    19 2   
    33    18    20 1   
    34    20    21 1   
    35    20    59 1   
    36    21    22 1   
    37    21    60 1   
    38    21    61 1   
    39    22    23 1   
    40    22    62 1   
    41    22    63 1   
    42    23    24 1   
    43    23    64 1   
    44    23    65 1   
    45    24    25 1   
    46    24    66 1   
    47    24    67 1   
    48    25    26 1   
    49    25    68 1   
    50    25    69 1   
    51    26    27 1   
    52    26    70 1   
    53    27    28 1   
    54    27    71 1   
    55    27    72 1   
    56    28    29 1   
    57    28    73 1   
    58    28    74 1   
    59    29    30 1   
    60    29    75 1   
    61    29    76 1   
    62    30    31 1   
    63    30    77 1   
    64    31    32 1   
    65    31    78 1   
    66    31    79 1   
    67    32    33 1   
    68    32    80 1   
    69    32    81 1   
    70    33    34 1   
    71    33    82 1   
    72    33    83 1   
    73    34    35 1   
    74    34    84 1   
    75    35    36 2   
    76    35    37 1   
    77    37    38 1   
    78    37    39 1   
    79    37    85 1   
    80    38    86 1   
    81    38    87 1   
    82    39    40 1   
    83    39    88 1   
    84    39    89 1   
    85    40    41 1   
    86    40    90 1   
    87    40    91 1   
    88    41    42 1   
    89    41    92 1   
    90    41    93 1   
    91    42    43 1   
    92    42    94 1   
    93    43    44 2   
    94    43    45 1   
    95    44    95 1   
    96    45    96 1   
    97    45    97 1   
@<TRIPOS>SUBSTRUCTURE
     1 LU7         1 TEMP              0 ****  ****    0 ROOT
