@<TRIPOS>MOLECULE
LU8
   64    67     1     0     0
SMALL
abcg2


@<TRIPOS>ATOM
      1 C10          0.2830    -1.6410    -0.4840 cp         1 LU8      -0.090000
      2 C13          3.8660    -1.7660     0.6810 ca         1 LU8      -0.108000
      3 C15          5.8430    -0.2300     0.4220 c6         1 LU8      -0.019400
      4 C17          7.4450     1.2940     1.6130 c6         1 LU8       0.165800
      5 C20          8.0610     0.4420    -0.5410 c6         1 LU8       0.165800
      6 C21          6.6210     0.0710    -0.8600 c6         1 LU8      -0.069400
      7 C22          3.5550     0.2520    -0.5530 ca         1 LU8      -0.108000
      8 C24         -0.8000    -0.7920    -0.2150 ca         1 LU8      -0.008300
      9 C26         -4.2740    -0.8990     0.5970 ca         1 LU8      -0.217500
     10 C01         -3.9930     3.0540    -2.4740 c3         1 LU8       0.145400
     11 C03         -4.6550     1.4460    -0.8660 ca         1 LU8       0.157100
     12 C04         -3.4890     0.7040    -1.0310 ca         1 LU8      -0.217500
     13 C05         -3.3040    -0.4640    -0.2990 cp         1 LU8       0.034000
     14 C06         -2.0830    -1.2750    -0.5050 cp         1 LU8      -0.100000
     15 C07         -2.2170    -2.5680    -0.9980 ca         1 LU8       0.347900
     16 C09          0.0170    -2.9130    -0.9880 ca         1 LU8       0.345900
     17 C11          1.6900    -1.2590    -0.2440 cp         1 LU8      -0.038000
     18 C12          2.5350    -2.0990     0.4790 ca         1 LU8      -0.097500
     19 C14          4.4020    -0.5870     0.1720 ca         1 LU8      -0.066300
     20 C16          5.9810     0.9570     1.3790 c6         1 LU8      -0.069400
     21 C23          2.2260    -0.0790    -0.7610 ca         1 LU8      -0.097500
     22 C25         -0.6120     0.5560     0.4150 c3         1 LU8      -0.056800
     23 C27         -5.4390    -0.1540     0.7710 ca         1 LU8       0.157100
     24 C29         -6.2850    -1.6500     2.4010 c3         1 LU8       0.145400
     25 C30         -5.6370     1.0140     0.0310 ca         1 LU8       0.027100
     26 C32         -6.7450     2.7340     1.1630 c3         1 LU8       0.148900
     27 N08         -1.1970    -3.3800    -1.2340 nb         1 LU8      -0.664000
     28 N18          8.1320     1.5710     0.3660 n3         1 LU8      -0.716600
     29 O28         -6.4280    -0.4810     1.6180 os         1 LU8      -0.323100
     30 O31         -6.7900     1.7190     0.1680 os         1 LU8      -0.328100
     31 H131         4.4980    -2.4350     1.2540 ha         1 LU8       0.115000
     32 H151         6.3190    -1.0930     0.9020 hc         1 LU8       0.048700
     33 H171         7.5210     2.1730     2.2570 h1         1 LU8       0.030450
     34 H172         7.9250     0.4610     2.1610 h1         1 LU8       0.030450
     35 H201         8.5800    -0.4430    -0.1250 h1         1 LU8       0.030450
     36 H202         8.5850     0.7030    -1.4640 h1         1 LU8       0.030450
     37 H212         6.6070    -0.7950    -1.5240 hc         1 LU8       0.050200
     38 H211         6.1500     0.8980    -1.3990 hc         1 LU8       0.050200
     39 H221         3.9330     1.1780    -0.9700 ha         1 LU8       0.115000
     40 H261        -4.1020    -1.8060     1.1620 ha         1 LU8       0.124500
     41 H011        -4.4090     3.9670    -2.8910 h1         1 LU8       0.042200
     42 H012        -3.0300     3.2860    -2.0130 h1         1 LU8       0.042200
     43 H013        -3.8320     2.3380    -3.2840 h1         1 LU8       0.042200
     44 H041        -2.7240     1.0140    -1.7310 ha         1 LU8       0.124500
     45 H071        -3.2070    -2.9550    -1.2170 h4         1 LU8       0.024100
     46 H091         0.8440    -3.5810    -1.2070 h4         1 LU8       0.022100
     47 H121         2.1480    -3.0180     0.9030 ha         1 LU8       0.115000
     48 H162         5.4680     1.8300     0.9650 hc         1 LU8       0.050200
     49 H161         5.5050     0.7280     2.3350 hc         1 LU8       0.050200
     50 H191        10.1080     1.1880     1.0750 h1         1 LU8       0.029700
     51 H192         9.9810     2.2390    -0.3430 h1         1 LU8       0.029700
     52 H193         9.5280     2.8520     1.2460 h1         1 LU8       0.029700
     53 H231         1.6030     0.5860    -1.3450 ha         1 LU8       0.115000
     54 H251        -0.5140     1.3430    -0.3340 hc         1 LU8       0.052033
     55 H252        -1.4650     0.8160     1.0400 hc         1 LU8       0.052033
     56 H253         0.2860     0.5810     1.0300 hc         1 LU8       0.052033
     57 H291        -6.2210    -2.5500     1.7840 h1         1 LU8       0.042200
     58 H292        -5.4070    -1.6040     3.0490 h1         1 LU8       0.042200
     59 H293        -7.1760    -1.7150     3.0210 h1         1 LU8       0.042200
     60 H323        -6.5750     2.3170     2.1580 h1         1 LU8       0.033033
     61 H321        -5.9690     3.4740     0.9530 h1         1 LU8       0.033033
     62 H322        -7.7120     3.2340     1.1550 h1         1 LU8       0.033033
     63 O02         -4.9330     2.5800    -1.5300 os         1 LU8      -0.323100
     64 C19          9.4990     1.9730     0.5990 c3         1 LU8       0.153100
@<TRIPOS>BOND
     1     1     8 ar  
     2     1    16 ar  
     3     1    17 1   
     4     2    18 ar  
     5     2    19 ar  
     6     2    31 1   
     7     3     6 1   
     8     3    19 1   
     9     3    20 1   
    10     3    32 1   
    11     4    20 1   
    12     4    28 1   
    13     4    33 1   
    14     4    34 1   
    15     5     6 1   
    16     5    28 1   
    17     5    35 1   
    18     5    36 1   
    19     6    37 1   
    20     6    38 1   
    21     7    19 ar  
    22     7    21 ar  
    23     7    39 1   
    24     8    14 ar  
    25     8    22 1   
    26     9    13 ar  
    27     9    23 ar  
    28     9    40 1   
    29    10    41 1   
    30    10    42 1   
    31    10    43 1   
    32    10    63 1   
    33    11    12 ar  
    34    11    25 ar  
    35    11    63 1   
    36    12    13 ar  
    37    12    44 1   
    38    13    14 1   
    39    14    15 ar  
    40    15    27 ar  
    41    15    45 1   
    42    16    27 ar  
    43    16    46 1   
    44    17    18 ar  
    45    17    21 ar  
    46    18    47 1   
    47    20    48 1   
    48    20    49 1   
    49    21    53 1   
    50    22    54 1   
    51    22    55 1   
    52    22    56 1   
    53    23    25 ar  
    54    23    29 1   
    55    24    29 1   
    56    24    57 1   
    57    24    58 1   
    58    24    59 1   
    59    25    30 1   
    60    26    30 1   
    61    26    60 1   
    62    26    61 1   
    63    26    62 1   
    64    28    64 1   
    65    50    64 1   
    66    51    64 1   
    67    52    64 1   
@<TRIPOS>SUBSTRUCTURE
     1 LU8         1 TEMP              0 ****  ****    0 ROOT
