@<TRIPOS>MOLECULE
LU8
   64    67     1     0     0
SMALL
No Charge or Current Charge


@<TRIPOS>ATOM
      1 C10          0.2990    -1.6930    -0.4560 cp         1 LU8      -0.090000
      2 C13          3.9350    -1.8050     0.7190 ca         1 LU8      -0.108000
      3 C15          5.9180    -0.2210     0.4570 c6         1 LU8      -0.019400
      4 C17          7.5530     1.4520     1.4870 c6         1 LU8       0.165800
      5 C20          8.1910     0.2960    -0.5910 c6         1 LU8       0.165800
      6 C21          6.7190    -0.0960    -0.8650 c6         1 LU8      -0.069400
      7 C22          3.5940     0.2560    -0.5190 ca         1 LU8      -0.108000
      8 C24         -0.8030    -0.8560    -0.1180 ca         1 LU8      -0.008300
      9 C26         -4.3970    -1.0400     0.6270 ca         1 LU8      -0.217500
     10 C01         -3.7100     3.4760    -1.7080 c3         1 LU8       0.145400
     11 C03         -4.6460     1.5770    -0.4040 ca         1 LU8       0.157100
     12 C04         -3.4900     0.8020    -0.6530 ca         1 LU8      -0.217500
     13 C05         -3.3440    -0.5020    -0.1370 cp         1 LU8       0.034000
     14 C06         -2.1200    -1.3100    -0.4170 cp         1 LU8      -0.100000
     15 C07         -2.2610    -2.5920    -0.9990 ca         1 LU8       0.347900
     16 C09          0.0160    -2.9540    -1.0360 ca         1 LU8       0.345900
     17 C11          1.7230    -1.3040    -0.2190 cp         1 LU8      -0.038000
     18 C12          2.5910    -2.1560     0.5020 ca         1 LU8      -0.097500
     19 C14          4.4480    -0.5950     0.2130 ca         1 LU8      -0.066300
     20 C16          6.0620     1.0920     1.2700 c6         1 LU8      -0.069400
     21 C23          2.2520    -0.0970    -0.7340 ca         1 LU8      -0.097500
     22 C25         -0.5810     0.4750     0.6050 c3         1 LU8      -0.056800
     23 C27         -5.5630    -0.2920     0.8910 ca         1 LU8       0.157100
     24 C29         -6.5590    -2.1390     2.2130 c3         1 LU8       0.145400
     25 C30         -5.7010     1.0230     0.3840 ca         1 LU8       0.027100
     26 C32         -7.2260     3.0230     0.2910 c3         1 LU8       0.148900
     27 N08         -1.2280    -3.4050    -1.3040 nb         1 LU8      -0.664000
     28 N18          8.2850     1.5570     0.1950 n3         1 LU8      -0.716600
     29 O28         -6.5980    -0.8150     1.6500 os         1 LU8      -0.323100
     30 O31         -6.8900     1.6860     0.7000 os         1 LU8      -0.328100
     31 H131         4.5760    -2.4790     1.2840 ha         1 LU8       0.115000
     32 H151         6.3840    -1.0230     1.0460 hc         1 LU8       0.048700
     33 H171         7.6080     2.4050     2.0350 h1         1 LU8       0.030450
     34 H172         8.0170     0.6850     2.1260 h1         1 LU8       0.030450
     35 H201         8.6870    -0.5250    -0.0510 h1         1 LU8       0.030450
     36 H202         8.7100     0.4090    -1.5540 h1         1 LU8       0.030450
     37 H212         6.6870    -1.0480    -1.4130 hc         1 LU8       0.050200
     38 H211         6.2620     0.6570    -1.5200 hc         1 LU8       0.050200
     39 H221         3.9690     1.1910    -0.9260 ha         1 LU8       0.115000
     40 H261        -4.2800    -2.0460     1.0180 ha         1 LU8       0.124500
     41 H011        -4.0100     4.4900    -2.0000 h1         1 LU8       0.042200
     42 H012        -2.7780     3.5500    -1.1330 h1         1 LU8       0.042200
     43 H013        -3.5190     2.9030    -2.6230 h1         1 LU8       0.042200
     44 H041        -2.6810     1.1910    -1.2620 ha         1 LU8       0.124500
     45 H071        -3.2520    -2.9770    -1.2370 h4         1 LU8       0.024100
     46 H091         0.8310    -3.6260    -1.3040 h4         1 LU8       0.022100
     47 H121         2.2160    -3.0940     0.9050 ha         1 LU8       0.115000
     48 H162         5.5640     1.9210     0.7510 hc         1 LU8       0.050200
     49 H161         5.5640     0.9860     2.2430 hc         1 LU8       0.050200
     50 H191        10.2560     1.2700     0.9610 h1         1 LU8       0.029700
     51 H192        10.1780     2.1320    -0.5950 h1         1 LU8       0.029700
     52 H193         9.7180     2.9660     0.9040 h1         1 LU8       0.029700
     53 H231         1.6150     0.5670    -1.3140 ha         1 LU8       0.115000
     54 H251        -0.4610     1.2980    -0.1090 hc         1 LU8       0.052033
     55 H252        -1.4180     0.7240     1.2670 hc         1 LU8       0.052033
     56 H253         0.3110     0.4500     1.2410 hc         1 LU8       0.052033
     57 H291        -6.4670    -2.8960     1.4230 h1         1 LU8       0.042200
     58 H292        -5.7130    -2.2440     2.9040 h1         1 LU8       0.042200
     59 H293        -7.4810    -2.3410     2.7710 h1         1 LU8       0.042200
     60 H323        -6.4990     3.7470     0.6820 h1         1 LU8       0.033033
     61 H321        -7.2640     3.1020    -0.8030 h1         1 LU8       0.033033
     62 H322        -8.2140     3.2980     0.6800 h1         1 LU8       0.033033
     63 O02         -4.7470     2.8580    -0.9240 os         1 LU8      -0.323100
     64 C19          9.6830     2.0030     0.3770 c3         1 LU8       0.153100
@<TRIPOS>BOND
     1     1     8 ar  
     2     1    16 ar  
     3     1    17 1   
     4     2    18 ar  
     5     2    19 ar  
     6     2    31 1   
     7     3     6 1   
     8     3    19 1   
     9     3    20 1   
    10     3    32 1   
    11     4    20 1   
    12     4    28 1   
    13     4    33 1   
    14     4    34 1   
    15     5     6 1   
    16     5    28 1   
    17     5    35 1   
    18     5    36 1   
    19     6    37 1   
    20     6    38 1   
    21     7    19 ar  
    22     7    21 ar  
    23     7    39 1   
    24     8    14 ar  
    25     8    22 1   
    26     9    13 ar  
    27     9    23 ar  
    28     9    40 1   
    29    10    41 1   
    30    10    42 1   
    31    10    43 1   
    32    10    63 1   
    33    11    12 ar  
    34    11    25 ar  
    35    11    63 1   
    36    12    13 ar  
    37    12    44 1   
    38    13    14 1   
    39    14    15 ar  
    40    15    27 ar  
    41    15    45 1   
    42    16    27 ar  
    43    16    46 1   
    44    17    18 ar  
    45    17    21 ar  
    46    18    47 1   
    47    20    48 1   
    48    20    49 1   
    49    21    53 1   
    50    22    54 1   
    51    22    55 1   
    52    22    56 1   
    53    23    25 ar  
    54    23    29 1   
    55    24    29 1   
    56    24    57 1   
    57    24    58 1   
    58    24    59 1   
    59    25    30 1   
    60    26    30 1   
    61    26    60 1   
    62    26    61 1   
    63    26    62 1   
    64    28    64 1   
    65    50    64 1   
    66    51    64 1   
    67    52    64 1   
@<TRIPOS>SUBSTRUCTURE
     1 LU8         1 TEMP              0 ****  ****    0 ROOT
