@<TRIPOS>MOLECULE
LUB
   26    26     1     0     0
SMALL
No Charge or Current Charge


@<TRIPOS>ATOM
      1 C2          10.8970    42.6990    23.8020 c5         1 LUB       0.206500
      2 C4          13.2790    42.4510    23.5050 c2         1 LUB      -0.211400
      3 C5          12.9840    43.0760    24.8570 c5         1 LUB       0.188800
      4 C6          10.3490    44.0980    23.4140 c3         1 LUB      -0.087400
      5 O11         10.4990    41.4860    21.3580 o          1 LUB      -0.705500
      6 O10         12.5830    41.3020    20.8820 o          1 LUB      -0.705500
      7 C3          12.0620    42.2540    22.9600 ce         1 LUB      -0.184400
      8 C12         14.6740    42.1200    23.0220 c3         1 LUB       0.255800
      9 O13         14.7900    42.4410    21.6430 oh         1 LUB      -0.738000
     10 O1          11.5720    42.7770    25.0880 os         1 LUB      -0.485000
     11 C7           9.2270    44.6190    24.3400 c3         1 LUB      -0.070400
     12 C8           8.6820    45.9960    23.9150 c3         1 LUB      -0.086100
     13 H1          10.0820    41.9630    23.8570 h1         1 LUB       0.075700
     14 H2          13.5860    42.6490    25.6700 h1         1 LUB       0.024200
     15 H3          13.1250    44.1650    24.8420 h1         1 LUB       0.024200
     16 H4          11.1670    44.8280    23.3990 hc         1 LUB       0.053700
     17 H5           9.9610    44.0580    22.3890 hc         1 LUB       0.053700
     18 H7          14.8670    41.0510    23.1780 h1         1 LUB       0.003200
     19 H8          15.4140    42.6840    23.6060 h1         1 LUB       0.003200
     20 H9          13.9780    42.0090    21.2410 ho         1 LUB       0.525000
     21 H10          8.4010    43.8960    24.3510 hc         1 LUB       0.034700
     22 H11          9.6040    44.6890    25.3680 hc         1 LUB       0.034700
     23 H12          7.8910    46.3220    24.6010 hc         1 LUB       0.021367
     24 H13          9.4790    46.7490    23.9280 hc         1 LUB       0.021367
     25 H14          8.2620    45.9520    22.9030 hc         1 LUB       0.021367
     26 C9          11.6800    41.6310    21.6390 c          1 LUB       0.726200
@<TRIPOS>BOND
     1     1     4 1   
     2     1     7 1   
     3     1    10 1   
     4     1    13 1   
     5     2     3 1   
     6     2     7 2   
     7     2     8 1   
     8     3    10 1   
     9     3    14 1   
    10     3    15 1   
    11     4    11 1   
    12     4    16 1   
    13     4    17 1   
    14     5    26 1   
    15     6    26 1   
    16     7    26 1   
    17     8     9 1   
    18     8    18 1   
    19     8    19 1   
    20     9    20 1   
    21    11    12 1   
    22    11    21 1   
    23    11    22 1   
    24    12    23 1   
    25    12    24 1   
    26    12    25 1   
@<TRIPOS>SUBSTRUCTURE
     1 LUB         1 TEMP              0 ****  ****    0 ROOT
