@<TRIPOS>MOLECULE
LUB
   26    26     1     0     0
SMALL
abcg2


@<TRIPOS>ATOM
      1 C2          10.9580    42.8060    23.8520 c5         1 LUB       0.206500
      2 C4          13.2170    42.4370    23.4980 c2         1 LUB      -0.211400
      3 C5          13.0180    42.9490    24.8930 c5         1 LUB       0.188800
      4 C6          10.3330    44.1270    23.4110 c3         1 LUB      -0.087400
      5 O11         10.4610    41.6240    21.3130 o          1 LUB      -0.705500
      6 O10         12.6100    41.4070    20.7910 o          1 LUB      -0.705500
      7 C3          12.0260    42.3180    22.9050 ce         1 LUB      -0.184400
      8 C12         14.6080    42.1390    23.0240 c3         1 LUB       0.255800
      9 O13         14.8320    42.3260    21.6610 oh         1 LUB      -0.738000
     10 O1          11.6250    42.9470    25.1020 os         1 LUB      -0.485000
     11 C7           9.2640    44.6480    24.3630 c3         1 LUB      -0.070400
     12 C8           8.6190    45.9340    23.8640 c3         1 LUB      -0.086100
     13 H1          10.1590    42.0650    23.9780 h1         1 LUB       0.075700
     14 H2          13.5090    42.3130    25.6400 h1         1 LUB       0.024200
     15 H3          13.4500    43.9550    25.0040 h1         1 LUB       0.024200
     16 H4          11.1240    44.8770    23.2920 hc         1 LUB       0.053700
     17 H5           9.8940    43.9790    22.4220 hc         1 LUB       0.053700
     18 H7          14.8500    41.1140    23.3580 h1         1 LUB       0.003200
     19 H8          15.2960    42.7880    23.5780 h1         1 LUB       0.003200
     20 H9          14.0250    41.9530    21.2080 ho         1 LUB       0.525000
     21 H10          8.4930    43.8820    24.4950 hc         1 LUB       0.034700
     22 H11          9.6970    44.8190    25.3520 hc         1 LUB       0.034700
     23 H12          7.8540    46.2940    24.5530 hc         1 LUB       0.021367
     24 H13          9.3600    46.7280    23.7490 hc         1 LUB       0.021367
     25 H14          8.1450    45.7850    22.8920 hc         1 LUB       0.021367
     26 C9          11.6690    41.7480    21.5600 c          1 LUB       0.726200
@<TRIPOS>BOND
     1     1     4 1   
     2     1     7 1   
     3     1    10 1   
     4     1    13 1   
     5     2     3 1   
     6     2     7 2   
     7     2     8 1   
     8     3    10 1   
     9     3    14 1   
    10     3    15 1   
    11     4    11 1   
    12     4    16 1   
    13     4    17 1   
    14     5    26 1   
    15     6    26 1   
    16     7    26 1   
    17     8     9 1   
    18     8    18 1   
    19     8    19 1   
    20     9    20 1   
    21    11    12 1   
    22    11    21 1   
    23    11    22 1   
    24    12    23 1   
    25    12    24 1   
    26    12    25 1   
@<TRIPOS>SUBSTRUCTURE
     1 LUB         1 TEMP              0 ****  ****    0 ROOT
