@<TRIPOS>MOLECULE
LUC
   40    42     1     0     0
SMALL
No Charge or Current Charge


@<TRIPOS>ATOM
      1 N1           7.1180     0.9050    21.1450 ns         1 LUC      -0.155000
      2 C4           5.9090     2.2970    19.4550 ca         1 LUC       0.334900
      3 C5           6.3100     1.0400    19.9760 ca         1 LUC      -0.085000
      4 C6           7.7990     1.8370    21.9170 c          1 LUC       0.603100
      5 C7           8.5530     1.2390    23.1100 c3         1 LUC      -0.111100
      6 C8          10.0320     1.0690    22.7780 ca         1 LUC      -0.055300
      7 C10         11.8630    -0.2820    21.9040 ca         1 LUC       0.134000
      8 C13         14.4780     3.1230    22.4910 cy         1 LUC       0.322700
      9 C15         15.1760     4.5080    21.2370 c          1 LUC       0.573000
     10 N            5.1380     2.4340    18.3490 nb         1 LUC      -0.646000
     11 N2          14.5050     3.3580    21.1260 ns         1 LUC      -0.557900
     12 C1           5.8780    -0.1280    19.3080 ca         1 LUC      -0.080300
     13 C11         12.7680     0.7620    22.1530 ca         1 LUC      -0.117000
     14 C2           5.0790     0.0230    18.1600 ca         1 LUC      -0.145000
     15 C16         10.9420     2.1160    23.0250 ca         1 LUC      -0.093000
     16 C9          10.5020    -0.1320    22.2130 ca         1 LUC      -0.098000
     17 C12         12.3050     1.9720    22.7130 ca         1 LUC       0.104100
     18 C14         15.1810     4.5150    22.8230 cy         1 LUC      -0.179400
     19 C            6.2590    -1.5230    19.7980 c3         1 LUC      -0.051800
     20 O            7.8320     3.0370    21.6710 o          1 LUC      -0.571100
     21 O2          15.6430     5.1390    20.3050 o          1 LUC      -0.512000
     22 C3           4.7360     1.3100    17.7170 ca         1 LUC       0.319900
     23 Cl          12.4380    -1.7880    21.2020 cl         1 LUC      -0.202000
     24 H1           7.2130    -0.0490    21.4690 hn         1 LUC       0.151000
     25 H2           6.1920     3.2330    19.9300 h4         1 LUC       0.044100
     26 H3           8.4430     1.9110    23.9690 hc         1 LUC       0.070700
     27 H4           8.1300     0.2590    23.3620 hc         1 LUC       0.070700
     28 H5          15.0310     2.2340    22.8150 h2         1 LUC       0.066700
     29 H6          14.7810     2.6880    20.4200 hn         1 LUC       0.342500
     30 H7          13.8150     0.6130    21.9090 ha         1 LUC       0.141000
     31 H8           4.7230    -0.8430    17.6090 ha         1 LUC       0.123000
     32 H9          10.5930     3.0500    23.4570 ha         1 LUC       0.138000
     33 H10          9.8160    -0.9510    22.0120 ha         1 LUC       0.131000
     34 H11         16.1920     4.4880    23.2370 hc         1 LUC       0.093200
     35 H12         14.5600     5.3150    23.2340 hc         1 LUC       0.093200
     36 H13          7.3480    -1.6480    19.8240 hc         1 LUC       0.047033
     37 H14          5.8710    -1.7070    20.8070 hc         1 LUC       0.047033
     38 H15          5.8560    -2.3060    19.1450 hc         1 LUC       0.047033
     39 H16          4.1190     1.4450    16.8300 h4         1 LUC       0.023100
     40 O1          13.1440     3.0350    22.9860 os         1 LUC      -0.362100
@<TRIPOS>BOND
     1     1     3 1   
     2     1     4 1   
     3     1    24 1   
     4     2     3 ar  
     5     2    10 ar  
     6     2    25 1   
     7     3    12 ar  
     8     4     5 1   
     9     4    20 2   
    10     5     6 1   
    11     5    26 1   
    12     5    27 1   
    13     6    15 ar  
    14     6    16 ar  
    15     7    13 ar  
    16     7    16 ar  
    17     7    23 1   
    18     8    11 1   
    19     8    18 1   
    20     8    28 1   
    21     8    40 1   
    22     9    11 1   
    23     9    18 1   
    24     9    21 2   
    25    10    22 ar  
    26    11    29 1   
    27    12    14 ar  
    28    12    19 1   
    29    13    17 ar  
    30    13    30 1   
    31    14    22 ar  
    32    14    31 1   
    33    15    17 ar  
    34    15    32 1   
    35    16    33 1   
    36    17    40 1   
    37    18    34 1   
    38    18    35 1   
    39    19    36 1   
    40    19    37 1   
    41    19    38 1   
    42    22    39 1   
@<TRIPOS>SUBSTRUCTURE
     1 LUC         1 TEMP              0 ****  ****    0 ROOT
