@<TRIPOS>MOLECULE
LUC
   40    42     1     0     0
SMALL
abcg2


@<TRIPOS>ATOM
      1 N1           7.5400     0.2520    20.6840 ns         1 LUC      -0.155000
      2 C4           7.2950     0.9690    18.3560 ca         1 LUC       0.334900
      3 C5           6.7370     0.5840    19.5760 ca         1 LUC      -0.085000
      4 C6           8.7250     0.8250    21.0410 c          1 LUC       0.603100
      5 C7           9.2850     0.3040    22.3630 c3         1 LUC      -0.111100
      6 C8          10.7880     0.3420    22.4040 ca         1 LUC      -0.055300
      7 C10         12.9080    -0.6940    21.9600 ca         1 LUC       0.134000
      8 C13         13.9440     3.5370    22.3270 cy         1 LUC       0.322700
      9 C15         13.4670     5.5630    22.2350 c          1 LUC       0.573000
     10 N            6.5650     1.2720    17.2810 nb         1 LUC      -0.646000
     11 N2          12.9110     4.4090    21.7740 ns         1 LUC      -0.557900
     12 C1           5.3420     0.4920    19.6910 ca         1 LUC      -0.080300
     13 C11         13.5920     0.4300    22.3990 ca         1 LUC      -0.117000
     14 C2           4.5970     0.8040    18.5580 ca         1 LUC      -0.145000
     15 C16         11.4570     1.4780    22.8510 ca         1 LUC      -0.093000
     16 C9          11.5220    -0.7550    21.9560 ca         1 LUC      -0.098000
     17 C12         12.8440     1.5150    22.8430 ca         1 LUC       0.104100
     18 C14         14.6010     4.7950    22.9280 cy         1 LUC      -0.179400
     19 C            4.6820     0.0840    20.9740 c3         1 LUC      -0.051800
     20 O            9.2790     1.6990    20.3910 o          1 LUC      -0.571100
     21 O2          13.1690     6.7290    22.0900 o          1 LUC      -0.512000
     22 C3           5.2370     1.1900    17.3890 ca         1 LUC       0.319900
     23 CL          13.8240    -2.0790    21.4030 cl         1 LUC      -0.202000
     24 H1           7.1520    -0.4140    21.3350 hn         1 LUC       0.151000
     25 H2           8.3690     1.0320    18.2540 h4         1 LUC       0.044100
     26 H3           8.8710     0.9440    23.1480 hc         1 LUC       0.070700
     27 H4           8.9240    -0.7090    22.5470 hc         1 LUC       0.070700
     28 H5          14.5110     2.9980    21.5670 h2         1 LUC       0.066700
     29 H6          12.1590     4.2340    21.1190 hn         1 LUC       0.342500
     30 H7          14.6720     0.4660    22.4080 ha         1 LUC       0.141000
     31 H8           3.5160     0.7520    18.5920 ha         1 LUC       0.123000
     32 H9          10.9070     2.3390    23.2090 ha         1 LUC       0.138000
     33 H10         11.0180    -1.6470    21.6090 ha         1 LUC       0.131000
     34 H11         15.5970     5.0300    22.5570 hc         1 LUC       0.093200
     35 H12         14.5750     4.8260    24.0160 hc         1 LUC       0.093200
     36 H13          4.9280    -0.9490    21.2380 hc         1 LUC       0.047033
     37 H14          5.0130     0.7160    21.8020 hc         1 LUC       0.047033
     38 H15          3.5990     0.1600    20.8890 hc         1 LUC       0.047033
     39 H16          4.6590     1.4380    16.5050 h4         1 LUC       0.023100
     40 O1          13.4920     2.6380    23.3240 os         1 LUC      -0.362100
@<TRIPOS>BOND
     1     1     3 1   
     2     1     4 1   
     3     1    24 1   
     4     2     3 ar  
     5     2    10 ar  
     6     2    25 1   
     7     3    12 ar  
     8     4     5 1   
     9     4    20 2   
    10     5     6 1   
    11     5    26 1   
    12     5    27 1   
    13     6    15 ar  
    14     6    16 ar  
    15     7    13 ar  
    16     7    16 ar  
    17     7    23 1   
    18     8    11 1   
    19     8    18 1   
    20     8    28 1   
    21     8    40 1   
    22     9    11 1   
    23     9    18 1   
    24     9    21 2   
    25    10    22 ar  
    26    11    29 1   
    27    12    14 ar  
    28    12    19 1   
    29    13    17 ar  
    30    13    30 1   
    31    14    22 ar  
    32    14    31 1   
    33    15    17 ar  
    34    15    32 1   
    35    16    33 1   
    36    17    40 1   
    37    18    34 1   
    38    18    35 1   
    39    19    36 1   
    40    19    37 1   
    41    19    38 1   
    42    22    39 1   
@<TRIPOS>SUBSTRUCTURE
     1 LUC         1 TEMP              0 ****  ****    0 ROOT
