@<TRIPOS>MOLECULE
LUD
   53    56     1     0     0
SMALL
No Charge or Current Charge


@<TRIPOS>ATOM
      1 N1           7.5380     0.2560    -0.5880 nc         1 LUD      -0.777300
      2 C2           5.2310     0.5160     0.1560 cd         1 LUD      -0.267600
      3 N3           6.4330    -1.5850    -0.0170 nu         1 LUD      -0.823200
      4 C4           5.2350    -2.4030     0.2640 c6         1 LUD       0.203800
      5 N5          -4.4620    -0.6370    -0.6160 ns         1 LUD      -0.420900
      6 C6           2.7500     0.0760     0.3110 c          1 LUD       0.603000
      7 C7           0.5440    -1.1720     0.5270 ca         1 LUD      -0.029000
      8 C9          -1.5720    -0.5150    -0.5290 ca         1 LUD      -0.055500
      9 C            7.5370     1.5430    -0.7330 cd         1 LUD       0.758800
     10 O            2.3310     1.0990    -0.2110 o          1 LUD      -0.522000
     11 C19          5.3460     1.9910     0.0020 c          1 LUD       0.610200
     12 N6           6.5450     2.3890    -0.4700 ns         1 LUD      -0.449400
     13 N2           4.0920    -0.2110     0.5870 n          1 LUD      -0.268000
     14 N4           1.9730    -1.0280     0.6850 n          1 LUD      -0.234400
     15 C5           2.8030    -2.1130     1.2630 c5         1 LUD       0.101000
     16 C3           4.2710    -1.5680     1.1530 c5         1 LUD       0.058700
     17 C1           6.3620    -0.2390    -0.1280 cc         1 LUD       0.444600
     18 C12         -0.2020    -1.7910     1.5510 ca         1 LUD      -0.163000
     19 C11         -1.6060    -1.8250     1.5090 ca         1 LUD      -0.055500
     20 C10         -2.3150    -1.1980     0.4620 ca         1 LUD      -0.120600
     21 C8          -0.1670    -0.4840    -0.4780 ca         1 LUD      -0.163000
     22 C13         -3.8310    -1.2570     0.4470 c          1 LUD       0.603700
     23 O1          -4.4660    -1.8300     1.3240 o          1 LUD      -0.648100
     24 C14         -5.9290    -0.5370    -0.8170 c3         1 LUD      -0.047300
     25 C18         -6.2810    -0.7970    -2.3130 c          1 LUD       0.719000
     26 O5          -5.6510    -0.1960    -3.1750 o          1 LUD      -0.742000
     27 O4          -7.1090    -1.6590    -2.5720 o          1 LUD      -0.742000
     28 C15         -6.4950     0.8260    -0.3360 c3         1 LUD      -0.056400
     29 C16         -6.3210     1.1050     1.1800 c3         1 LUD      -0.203400
     30 C17         -7.0190     2.4230     1.5610 c          1 LUD       0.713000
     31 O3          -6.3810     3.4620     1.4780 o          1 LUD      -0.760500
     32 O2          -8.1970     2.3820     1.8820 o          1 LUD      -0.760500
     33 H2           4.7320    -2.6660    -0.6780 h1         1 LUD       0.055700
     34 H3           5.5020    -3.3390     0.7760 h1         1 LUD       0.055700
     35 H4          -3.8670    -0.2170    -1.3180 hn         1 LUD       0.298500
     36 H5          -2.0650     0.0060    -1.3450 ha         1 LUD       0.132500
     37 H6           9.2940     1.3300    -1.5260 hn         1 LUD       0.504500
     38 H7           8.5950     2.8650    -1.7760 hn         1 LUD       0.504500
     39 H8           6.6830     3.3790    -0.5760 hn         1 LUD       0.318500
     40 H9           2.5400    -2.2980     2.3120 h1         1 LUD       0.056700
     41 H10          2.6690    -3.0490     0.7050 h1         1 LUD       0.056700
     42 H11          4.7180    -1.4920     2.1530 h1         1 LUD       0.074700
     43 H12          0.3000    -2.2590     2.3930 ha         1 LUD       0.110500
     44 H13         -2.1440    -2.3350     2.3060 ha         1 LUD       0.132500
     45 H14          0.3620     0.0500    -1.2620 ha         1 LUD       0.110500
     46 H15         -6.4140    -1.3330    -0.2370 h1         1 LUD       0.055700
     47 H17         -6.0250     1.6360    -0.9080 hc         1 LUD       0.050700
     48 H18         -7.5660     0.8570    -0.5760 hc         1 LUD       0.050700
     49 H19         -6.7920     0.2590     1.6960 hc         1 LUD       0.010700
     50 H20         -5.2400     1.1830     1.3550 hc         1 LUD       0.010700
     51 H1           7.2670    -1.9940    -0.4340 hn         1 LUD       0.500000
     52 N            8.6660     2.0460    -1.1860 nv         1 LUD      -1.073200
     53 O6           4.4920     2.8110     0.2970 o          1 LUD      -0.523000
@<TRIPOS>BOND
     1     1     9 2   
     2     1    17 1   
     3     2    11 1   
     4     2    13 1   
     5     2    17 2   
     6     3     4 1   
     7     3    17 1   
     8     3    51 1   
     9     4    16 1   
    10     4    33 1   
    11     4    34 1   
    12     5    22 1   
    13     5    24 1   
    14     5    35 1   
    15     6    10 2   
    16     6    13 1   
    17     6    14 1   
    18     7    14 1   
    19     7    18 ar  
    20     7    21 ar  
    21     8    20 ar  
    22     8    21 ar  
    23     8    36 1   
    24     9    12 1   
    25     9    52 1   
    26    11    12 1   
    27    11    53 2   
    28    12    39 1   
    29    13    16 1   
    30    14    15 1   
    31    15    16 1   
    32    15    40 1   
    33    15    41 1   
    34    16    42 1   
    35    18    19 ar  
    36    18    43 1   
    37    19    20 ar  
    38    19    44 1   
    39    20    22 1   
    40    21    45 1   
    41    22    23 2   
    42    24    25 1   
    43    24    28 1   
    44    24    46 1   
    45    25    26 1   
    46    25    27 1   
    47    28    29 1   
    48    28    47 1   
    49    28    48 1   
    50    29    30 1   
    51    29    49 1   
    52    29    50 1   
    53    30    31 1   
    54    30    32 1   
    55    37    52 1   
    56    38    52 1   
@<TRIPOS>SUBSTRUCTURE
     1 LUD         1 TEMP              0 ****  ****    0 ROOT
