@<TRIPOS>MOLECULE
LUD
   53    56     1     0     0
SMALL
abcg2


@<TRIPOS>ATOM
      1 N1           7.2440     0.2810    -0.9640 nc         1 LUD      -0.777300
      2 C2           5.1520     0.5160     0.2150 cd         1 LUD      -0.267600
      3 N3           5.9340    -1.5620    -0.6190 nu         1 LUD      -0.823200
      4 C4           4.7780    -2.2760    -0.1310 c6         1 LUD       0.203800
      5 N5          -4.3910    -0.5430    -0.0760 ns         1 LUD      -0.420900
      6 C6           2.7590     0.0840     0.3000 c          1 LUD       0.603000
      7 C7           0.6100    -1.1130     0.5490 ca         1 LUD      -0.029000
      8 C9          -1.5000    -0.5360    -0.4660 ca         1 LUD      -0.055500
      9 C            7.4480     1.5610    -0.7760 cd         1 LUD       0.758800
     10 O            2.3850     1.0740    -0.2900 o          1 LUD      -0.522000
     11 C19          5.4060     1.8760     0.5040 c          1 LUD       0.610200
     12 N6           6.5870     2.3450    -0.0840 ns         1 LUD      -0.449400
     13 N2           4.0340    -0.1480     0.7520 n          1 LUD      -0.268000
     14 N4           1.9950    -1.0110     0.6540 n          1 LUD      -0.234400
     15 C5           2.7820    -1.9670     1.4170 c5         1 LUD       0.101000
     16 C3           4.2070    -1.5480     1.0840 c5         1 LUD       0.058700
     17 C1           6.1020    -0.2380    -0.4650 cc         1 LUD       0.444600
     18 C12         -0.0740    -1.9960     1.3910 ca         1 LUD      -0.163000
     19 C11         -1.4470    -2.1380     1.2990 ca         1 LUD      -0.055500
     20 C10         -2.1890    -1.3950     0.3870 ca         1 LUD      -0.120600
     21 C8          -0.1260    -0.3950    -0.4010 ca         1 LUD      -0.163000
     22 C13         -3.6690    -1.5890     0.3390 c          1 LUD       0.603700
     23 O1          -4.1740    -2.6440     0.7140 o          1 LUD      -0.648100
     24 C14         -5.8040    -0.6340    -0.3640 c3         1 LUD      -0.047300
     25 C18         -6.0910    -1.4290    -1.6650 c          1 LUD       0.719000
     26 O5          -5.1270    -1.7110    -2.3970 o          1 LUD      -0.742000
     27 O4          -7.2930    -1.6980    -1.8600 o          1 LUD      -0.742000
     28 C15         -6.4040     0.7700    -0.4340 c3         1 LUD      -0.056400
     29 C16         -6.2760     1.5470     0.8670 c3         1 LUD      -0.203400
     30 C17         -6.9300     2.9410     0.8780 c          1 LUD       0.713000
     31 O3          -6.7110     3.6360     1.8930 o          1 LUD      -0.760500
     32 O2          -7.6320     3.2650    -0.1000 o          1 LUD      -0.760500
     33 H2           4.0040    -2.3610    -0.9040 h1         1 LUD       0.055700
     34 H3           5.0770    -3.2870     0.1440 h1         1 LUD       0.055700
     35 H4          -3.9100     0.2800    -0.3980 hn         1 LUD       0.298500
     36 H5          -2.0270     0.0180    -1.2340 ha         1 LUD       0.132500
     37 H6           9.1970     1.5740    -1.7940 hn         1 LUD       0.504500
     38 H7           8.7400     3.1150    -1.1730 hn         1 LUD       0.504500
     39 H8           6.8110     3.3190     0.0710 hn         1 LUD       0.318500
     40 H9           2.5900    -1.8820     2.4890 h1         1 LUD       0.056700
     41 H10          2.5680    -2.9900     1.1080 h1         1 LUD       0.056700
     42 H11          4.8740    -1.6590     1.9400 h1         1 LUD       0.074700
     43 H12          0.4540    -2.5760     2.1340 ha         1 LUD       0.110500
     44 H13         -1.9460    -2.8300     1.9640 ha         1 LUD       0.132500
     45 H14          0.3650     0.2600    -1.1020 ha         1 LUD       0.110500
     46 H15         -6.2850    -1.1660     0.4630 h1         1 LUD       0.055700
     47 H17         -5.9290     1.3240    -1.2520 hc         1 LUD       0.050700
     48 H18         -7.4550     0.6710    -0.7040 hc         1 LUD       0.050700
     49 H19         -6.7210     0.9620     1.6810 hc         1 LUD       0.010700
     50 H20         -5.2240     1.6620     1.1450 hc         1 LUD       0.010700
     51 H1           6.6540    -2.0680    -1.1080 hn         1 LUD       0.500000
     52 N            8.5480     2.1330    -1.2690 nv         1 LUD      -1.073200
     53 O6           4.7250     2.6390     1.1800 o          1 LUD      -0.523000
@<TRIPOS>BOND
     1     1     9 2   
     2     1    17 1   
     3     2    11 1   
     4     2    13 1   
     5     2    17 2   
     6     3     4 1   
     7     3    17 1   
     8     3    51 1   
     9     4    16 1   
    10     4    33 1   
    11     4    34 1   
    12     5    22 1   
    13     5    24 1   
    14     5    35 1   
    15     6    10 2   
    16     6    13 1   
    17     6    14 1   
    18     7    14 1   
    19     7    18 ar  
    20     7    21 ar  
    21     8    20 ar  
    22     8    21 ar  
    23     8    36 1   
    24     9    12 1   
    25     9    52 1   
    26    11    12 1   
    27    11    53 2   
    28    12    39 1   
    29    13    16 1   
    30    14    15 1   
    31    15    16 1   
    32    15    40 1   
    33    15    41 1   
    34    16    42 1   
    35    18    19 ar  
    36    18    43 1   
    37    19    20 ar  
    38    19    44 1   
    39    20    22 1   
    40    21    45 1   
    41    22    23 2   
    42    24    25 1   
    43    24    28 1   
    44    24    46 1   
    45    25    26 1   
    46    25    27 1   
    47    28    29 1   
    48    28    47 1   
    49    28    48 1   
    50    29    30 1   
    51    29    49 1   
    52    29    50 1   
    53    30    31 1   
    54    30    32 1   
    55    37    52 1   
    56    38    52 1   
@<TRIPOS>SUBSTRUCTURE
     1 LUD         1 TEMP              0 ****  ****    0 ROOT
