@<TRIPOS>MOLECULE
LUE
   57    61     1     0     0
SMALL
bcc


@<TRIPOS>ATOM
      1 C1          -3.1950    -1.4850    14.3830 cc         1 LUE       0.336800
      2 C2          -1.9270    -0.0430    13.4170 cd         1 LUE      -0.099200
      3 C3          -1.0680    -0.8330    14.1700 cc         1 LUE       0.015700
      4 N6           5.1070     2.6210    13.4500 nc         1 LUE      -0.515800
      5 C7           0.3180    -0.8680    14.4160 cc         1 LUE      -0.149000
      6 C8           3.2400    -1.2260    15.3640 ca         1 LUE       0.900900
      7 C9           5.4430    -0.9510    15.7390 ca         1 LUE       0.469200
      8 C10          5.4480     0.2070    14.9810 ca         1 LUE      -0.387600
      9 C11          4.2320     0.5810    14.4190 ca         1 LUE       0.484300
     10 C12          4.0920     1.7780    13.6000 cd         1 LUE       0.220300
     11 C13          2.9610     2.2250    12.8950 cd         1 LUE      -0.239300
     12 C14          3.3640     3.3990    12.3030 cc         1 LUE      -0.106600
     13 C16          2.6200     4.3520    11.4330 c3         1 LUE       0.219100
     14 C19         -1.5670     1.0510    12.5740 cd         1 LUE       0.600200
     15 C20         -1.8390     2.7030    11.2770 cd         1 LUE       0.457700
     16 C21         -2.5710     3.7080    10.4840 c3         1 LUE      -0.118400
     17 N9          -0.5740     2.5500    11.4210 nc         1 LUE      -0.380000
     18 N8          -0.3880     1.4810    12.2590 nc         1 LUE      -0.394000
     19 O           -2.5280     1.7820    11.9840 os         1 LUE      -0.350800
     20 N           -3.2150    -0.4670    13.5730 nd         1 LUE      -0.503300
     21 C6           0.8160    -1.8290    15.2620 cd         1 LUE       0.198600
     22 C5          -0.0920    -2.7740    15.8520 cd         1 LUE      -0.197000
     23 C4          -1.4150    -2.7180    15.6070 cc         1 LUE      -0.047300
     24 N1          -1.9030    -1.7500    14.7770 na         1 LUE      -0.063200
     25 C           -4.3520    -2.2820    14.8520 c3         1 LUE      -0.098400
     26 N2           2.1350    -1.9940    15.6180 nu         1 LUE      -0.732300
     27 N4           3.1300    -0.1450    14.6100 nb         1 LUE      -0.749000
     28 N3           4.3550    -1.6760    15.9430 nb         1 LUE      -0.769000
     29 N5           4.6530     3.5860    12.6730 na         1 LUE       0.140400
     30 N7           2.3650     5.6210    12.0970 n3         1 LUE      -0.720600
     31 C18          1.8810     6.6030    11.1510 c3         1 LUE       0.148100
     32 C17          1.4460     5.4720    13.2080 c3         1 LUE       0.148100
     33 H1           0.9520    -0.1400    13.9400 ha         1 LUE       0.209000
     34 H2           6.3550    -1.3070    16.2030 h4         1 LUE       0.023100
     35 H3           6.3500     0.7810    14.8330 ha         1 LUE       0.171000
     36 H4           1.9850     1.7710    12.8210 ha         1 LUE       0.200000
     37 H5           6.4680     4.5600    12.7860 h1         1 LUE       0.061033
     38 H6           5.6610     4.7010    11.2160 h1         1 LUE       0.061033
     39 H7           5.0610     5.6310    12.5990 h1         1 LUE       0.061033
     40 H8           1.6910     3.8610    11.1080 h1         1 LUE       0.059700
     41 H9           3.2030     4.5550    10.5300 h1         1 LUE       0.059700
     42 H10         -1.8600     4.3370     9.9560 hc         1 LUE       0.066700
     43 H11         -3.2260     3.2320     9.7530 hc         1 LUE       0.066700
     44 H12         -3.1860     4.3400    11.1250 hc         1 LUE       0.066700
     45 H13          0.2810    -3.5460    16.5110 ha         1 LUE       0.149000
     46 H14         -2.1250    -3.4070    16.0390 h4         1 LUE       0.167000
     47 H15         -5.2620    -1.8940    14.4000 hc         1 LUE       0.056367
     48 H16         -4.2580    -3.3340    14.5770 hc         1 LUE       0.056367
     49 H17         -4.4640    -2.2330    15.9370 hc         1 LUE       0.056367
     50 H18          2.3330    -2.7800    16.2200 hn         1 LUE       0.456800
     51 H20          1.7510     7.5650    11.6480 h1         1 LUE       0.032867
     52 H21          2.6050     6.7360    10.3460 h1         1 LUE       0.032867
     53 H22          0.9160     6.3300    10.6940 h1         1 LUE       0.032867
     54 H23          1.8570     4.7980    13.9600 h1         1 LUE       0.032867
     55 H24          1.2870     6.4400    13.6840 h1         1 LUE       0.032867
     56 H25          0.4660     5.0750    12.9030 h1         1 LUE       0.032867
     57 C15          5.5080     4.6880    12.2950 c3         1 LUE       0.037600
@<TRIPOS>BOND
     1     1    20 2   
     2     1    24 1   
     3     1    25 1   
     4     2     3 2   
     5     2    14 1   
     6     2    20 1   
     7     3     5 1   
     8     3    24 1   
     9     4    10 2   
    10     4    29 1   
    11     5    21 2   
    12     5    33 1   
    13     6    26 1   
    14     6    27 ar  
    15     6    28 ar  
    16     7     8 ar  
    17     7    28 ar  
    18     7    34 1   
    19     8     9 ar  
    20     8    35 1   
    21     9    10 1   
    22     9    27 ar  
    23    10    11 1   
    24    11    12 2   
    25    11    36 1   
    26    12    13 1   
    27    12    29 1   
    28    13    30 1   
    29    13    40 1   
    30    13    41 1   
    31    14    18 2   
    32    14    19 1   
    33    15    16 1   
    34    15    17 2   
    35    15    19 1   
    36    16    42 1   
    37    16    43 1   
    38    16    44 1   
    39    17    18 1   
    40    21    22 1   
    41    21    26 1   
    42    22    23 2   
    43    22    45 1   
    44    23    24 1   
    45    23    46 1   
    46    25    47 1   
    47    25    48 1   
    48    25    49 1   
    49    26    50 1   
    50    29    57 1   
    51    30    31 1   
    52    30    32 1   
    53    31    51 1   
    54    31    52 1   
    55    31    53 1   
    56    32    54 1   
    57    32    55 1   
    58    32    56 1   
    59    37    57 1   
    60    38    57 1   
    61    39    57 1   
@<TRIPOS>SUBSTRUCTURE
     1 LUE         1 TEMP              0 ****  ****    0 ROOT
