@<TRIPOS>MOLECULE
LUE
   57    61     1     0     0
SMALL
No Charge or Current Charge


@<TRIPOS>ATOM
      1 C1          -3.1870    -1.9540    13.9410 cc         1 LUE       0.336800
      2 C2          -2.1290    -0.0570    13.6350 cd         1 LUE      -0.099200
      3 C3          -1.2350    -0.8810    14.2980 cc         1 LUE      -0.035000
      4 N6           5.2270     2.6200    13.4580 nc         1 LUE      -0.515800
      5 C7           0.1000    -0.7130    14.7640 cc         1 LUE      -0.131000
      6 C8           3.1110    -1.0000    15.7200 ca         1 LUE       0.374900
      7 C9           5.2730    -0.6130    16.3670 ca         1 LUE       0.140900
      8 C10          5.3510     0.4510    15.4550 ca         1 LUE      -0.239000
      9 C11          4.2100     0.7370    14.6760 ca         1 LUE       0.156000
     10 C12          4.1790     1.8440    13.6890 cd         1 LUE       0.155000
     11 C13          3.0710     2.2140    12.8930 cd         1 LUE      -0.156000
     12 C14          3.4400     3.2790    12.1250 cc         1 LUE      -0.157300
     13 C16          2.6520     4.0670    11.1090 c3         1 LUE       0.219100
     14 C19         -1.8380     1.3080    13.2190 cd         1 LUE       0.555800
     15 C20         -2.1080     3.1800    12.3570 cd         1 LUE       0.413300
     16 C21         -2.7620     4.3240    11.6400 c3         1 LUE      -0.118400
     17 N9          -0.8770     3.2030    12.8370 nc         1 LUE      -0.380000
     18 N8          -0.6970     1.9640    13.4070 nc         1 LUE      -0.394000
     19 O           -2.7810     2.0260    12.5600 os         1 LUE      -0.262000
     20 N           -3.3390    -0.7360    13.4200 nd         1 LUE      -0.503300
     21 C6           0.6960    -1.7880    15.3870 cd         1 LUE       0.337000
     22 C5          -0.0790    -3.0010    15.5590 cd         1 LUE      -0.179000
     23 C4          -1.3940    -3.1610    15.1110 cc         1 LUE      -0.080000
     24 N1          -1.9160    -2.0380    14.4590 na         1 LUE       0.038200
     25 C           -4.2310    -3.0360    13.9470 c3         1 LUE      -0.098400
     26 N2           1.9790    -1.7930    15.8870 nu         1 LUE      -0.925900
     27 N4           3.0880    -0.0030    14.8160 nb         1 LUE      -0.223000
     28 N3           4.1490    -1.3430    16.5010 nb         1 LUE      -0.243000
     29 N5           4.7660     3.4990    12.4940 na         1 LUE       0.161800
     30 N7           2.5760     5.5160    11.4180 n3         1 LUE      -0.720600
     31 C18          1.9950     6.2970    10.3050 c3         1 LUE       0.148100
     32 C17          1.9090     5.8020    12.7100 c3         1 LUE       0.148100
     33 H1           0.6120     0.2270    14.6430 ha         1 LUE       0.191000
     34 H2           6.1180    -0.8850    16.9970 h4         1 LUE       0.023100
     35 H3           6.2640     1.0310    15.3600 ha         1 LUE       0.153000
     36 H4           2.0950     1.7400    12.8950 ha         1 LUE       0.182000
     37 H5           6.6970     4.3280    12.2450 h1         1 LUE       0.061033
     38 H6           5.5750     4.5830    10.8770 h1         1 LUE       0.061033
     39 H7           5.3640     5.5140    12.3890 h1         1 LUE       0.061033
     40 H8           1.6410     3.6410    11.0410 h1         1 LUE       0.059700
     41 H9           3.1270     3.9160    10.1290 h1         1 LUE       0.059700
     42 H10         -2.0420     4.8490    11.0030 hc         1 LUE       0.066700
     43 H11         -3.5820     3.9710    11.0040 hc         1 LUE       0.066700
     44 H12         -3.1730     5.0440    12.3560 hc         1 LUE       0.066700
     45 H13          0.3840    -3.8430    16.0610 ha         1 LUE       0.131000
     46 H14         -2.0050    -4.0490    15.2180 h4         1 LUE       0.149000
     47 H15         -5.1500    -2.6990    13.4550 hc         1 LUE       0.056367
     48 H16         -3.8710    -3.9260    13.4180 hc         1 LUE       0.056367
     49 H17         -4.4840    -3.3240    14.9740 hc         1 LUE       0.056367
     50 H18          2.1610    -2.5940    16.4920 hn         1 LUE       0.512000
     51 H20          2.0230     7.3720    10.5290 h1         1 LUE       0.032867
     52 H21          2.5590     6.1320     9.3770 h1         1 LUE       0.032867
     53 H22          0.9490     6.0100    10.1290 h1         1 LUE       0.032867
     54 H23          2.4130     5.2880    13.5390 h1         1 LUE       0.032867
     55 H24          1.9280     6.8780    12.9250 h1         1 LUE       0.032867
     56 H25          0.8600     5.4760    12.6890 h1         1 LUE       0.032867
     57 C15          5.6580     4.5450    11.9690 c3         1 LUE       0.066900
@<TRIPOS>BOND
     1     1    20 2   
     2     1    24 1   
     3     1    25 1   
     4     2     3 2   
     5     2    14 1   
     6     2    20 1   
     7     3     5 1   
     8     3    24 1   
     9     4    10 2   
    10     4    29 1   
    11     5    21 2   
    12     5    33 1   
    13     6    26 1   
    14     6    27 ar  
    15     6    28 ar  
    16     7     8 ar  
    17     7    28 ar  
    18     7    34 1   
    19     8     9 ar  
    20     8    35 1   
    21     9    10 1   
    22     9    27 ar  
    23    10    11 1   
    24    11    12 2   
    25    11    36 1   
    26    12    13 1   
    27    12    29 1   
    28    13    30 1   
    29    13    40 1   
    30    13    41 1   
    31    14    18 2   
    32    14    19 1   
    33    15    16 1   
    34    15    17 2   
    35    15    19 1   
    36    16    42 1   
    37    16    43 1   
    38    16    44 1   
    39    17    18 1   
    40    21    22 1   
    41    21    26 1   
    42    22    23 2   
    43    22    45 1   
    44    23    24 1   
    45    23    46 1   
    46    25    47 1   
    47    25    48 1   
    48    25    49 1   
    49    26    50 1   
    50    29    57 1   
    51    30    31 1   
    52    30    32 1   
    53    31    51 1   
    54    31    52 1   
    55    31    53 1   
    56    32    54 1   
    57    32    55 1   
    58    32    56 1   
    59    37    57 1   
    60    38    57 1   
    61    39    57 1   
@<TRIPOS>SUBSTRUCTURE
     1 LUE         1 TEMP              0 ****  ****    0 ROOT
