@<TRIPOS>MOLECULE
LUF
   66    67     1     0     0
SMALL
abcg2


@<TRIPOS>ATOM
      1 C4           8.5480     0.0780    -0.7980 c6         1 LUF      -0.071400
      2 C5           7.7830    -1.2210    -0.6240 c6         1 LUF      -0.038200
      3 C6           6.2920    -1.0310    -0.5260 c2         1 LUF      -0.111400
      4 C10          3.6250    -0.1380     1.1630 c3         1 LUF      -0.041200
      5 C13          1.3600    -1.1100     1.2620 c2         1 LUF      -0.225200
      6 C15         -0.1350    -1.1860     1.2660 c3         1 LUF      -0.035200
      7 C17         -2.1840    -1.6990    -0.1380 c2         1 LUF      -0.104400
      8 C20         -4.9220     0.4410     0.1020 c3         1 LUF      -0.026200
      9 C21         -2.7510    -2.8800     0.5940 c3         1 LUF      -0.056900
     10 C22         -6.3980     0.5980     0.0320 c2         1 LUF      -0.091400
     11 C24         -7.3450    -0.0230     0.7310 ce         1 LUF      -0.291200
     12 C25         -8.6550     0.4460     0.2650 c          1 LUF       0.657300
     13 O1          -8.4610     1.3500    -0.7130 os         1 LUF      -0.461100
     14 C23         -7.0610     1.5410    -0.9380 c5         1 LUF       0.410500
     15 O2          -6.7170     1.2320    -2.2290 oh         1 LUF      -0.632000
     16 C18         -4.4070    -0.6740    -0.8300 c3         1 LUF      -0.032200
     17 C19         -2.9160    -0.7710    -0.7610 c2         1 LUF      -0.229200
     18 C16         -0.6820    -1.5850    -0.1150 c3         1 LUF      -0.040200
     19 C12          2.1250    -0.0160     1.2160 c2         1 LUF      -0.109400
     20 C14          1.5940     1.3880     1.1940 c3         1 LUF      -0.055900
     21 C3           5.7160     0.1530    -0.2700 c2         1 LUF      -0.105400
     22 C1           6.5270     1.4290    -0.0640 c6         1 LUF      -0.000800
     23 C9           6.3880     2.3240    -1.3050 c3         1 LUF      -0.081100
     24 C11          5.5290    -2.3090    -0.7390 c3         1 LUF      -0.055900
     25 C2           8.0080     1.1090     0.1750 c6         1 LUF      -0.068400
     26 H1           9.6140    -0.0860    -0.6260 hc         1 LUF       0.041200
     27 H2           8.4530     0.4360    -1.8270 hc         1 LUF       0.041200
     28 H3           8.0010    -1.9090    -1.4480 hc         1 LUF       0.043700
     29 H4           8.1320    -1.7370     0.2800 hc         1 LUF       0.043700
     30 H11          3.9190    -1.1710     1.3660 hc         1 LUF       0.047200
     31 H12          4.0730     0.4700     1.9540 hc         1 LUF       0.047200
     32 H13          1.8670    -2.0740     1.2610 ha         1 LUF       0.165000
     33 H14         -0.4510    -1.9230     2.0100 hc         1 LUF       0.044700
     34 H15         -0.5890    -0.2380     1.5620 hc         1 LUF       0.044700
     35 H16         -4.4360     1.3840    -0.1600 hc         1 LUF       0.055700
     36 H17         -4.6320     0.2010     1.1260 hc         1 LUF       0.055700
     37 H18         -2.5290    -2.8230     1.6620 hc         1 LUF       0.040700
     38 H19         -3.8290    -2.9760     0.4920 hc         1 LUF       0.040700
     39 H20         -2.2970    -3.8060     0.2330 hc         1 LUF       0.040700
     40 H22         -7.2250    -0.7540     1.5160 ha         1 LUF       0.227000
     41 H24         -6.8360     2.5830    -0.6860 h2         1 LUF       0.067700
     42 H25         -6.8750     1.9920    -2.8000 ho         1 LUF       0.467000
     43 H26         -4.8890    -1.6130    -0.5540 hc         1 LUF       0.057200
     44 H27         -4.7140    -0.4540    -1.8540 hc         1 LUF       0.057200
     45 H28         -2.3820     0.0440    -1.2460 ha         1 LUF       0.167000
     46 H29         -0.3530    -0.8410    -0.8450 hc         1 LUF       0.046700
     47 H30         -0.2320    -2.5390    -0.4110 hc         1 LUF       0.046700
     48 H31          2.0270     1.9770     2.0060 hc         1 LUF       0.038700
     49 H32          1.8650     1.8960     0.2660 hc         1 LUF       0.038700
     50 H33          0.5110     1.4410     1.2850 hc         1 LUF       0.038700
     51 H35          6.9210     3.2670    -1.1570 hc         1 LUF       0.033033
     52 H36          6.7950     1.8450    -2.1960 hc         1 LUF       0.033033
     53 H37          5.3460     2.5710    -1.5160 hc         1 LUF       0.033033
     54 H38          5.6940    -2.6870    -1.7520 hc         1 LUF       0.038700
     55 H39          5.8940    -3.0870    -0.0630 hc         1 LUF       0.038700
     56 H40          4.4550    -2.2240    -0.5900 hc         1 LUF       0.038700
     57 H41          8.1310     0.7260     1.1950 hc         1 LUF       0.040200
     58 H42          8.5870     2.0360     0.1250 hc         1 LUF       0.040200
     59 C7           4.2110     0.2910    -0.1930 c3         1 LUF      -0.032200
     60 C8           6.0280     2.2180     1.1530 c3         1 LUF      -0.081100
     61 O3          -9.7560     0.1400     0.6360 o          1 LUF      -0.475000
     62 H6           3.7290    -0.2980    -0.9770 hc         1 LUF       0.044200
     63 H7           3.9270     1.3260    -0.3970 hc         1 LUF       0.044200
     64 H8           4.9990     2.5620     1.0380 hc         1 LUF       0.033033
     65 H9           6.0840     1.6250     2.0680 hc         1 LUF       0.033033
     66 H10          6.6490     3.1050     1.2970 hc         1 LUF       0.033033
@<TRIPOS>BOND
     1     1     2 1   
     2     1    25 1   
     3     1    26 1   
     4     1    27 1   
     5     2     3 1   
     6     2    28 1   
     7     2    29 1   
     8     3    21 2   
     9     3    24 1   
    10     4    19 1   
    11     4    30 1   
    12     4    31 1   
    13     4    59 1   
    14     5     6 1   
    15     5    19 2   
    16     5    32 1   
    17     6    18 1   
    18     6    33 1   
    19     6    34 1   
    20     7     9 1   
    21     7    17 2   
    22     7    18 1   
    23     8    10 1   
    24     8    16 1   
    25     8    35 1   
    26     8    36 1   
    27     9    37 1   
    28     9    38 1   
    29     9    39 1   
    30    10    11 2   
    31    10    14 1   
    32    11    12 1   
    33    11    40 1   
    34    12    13 1   
    35    12    61 2   
    36    13    14 1   
    37    14    15 1   
    38    14    41 1   
    39    15    42 1   
    40    16    17 1   
    41    16    43 1   
    42    16    44 1   
    43    17    45 1   
    44    18    46 1   
    45    18    47 1   
    46    19    20 1   
    47    20    48 1   
    48    20    49 1   
    49    20    50 1   
    50    21    22 1   
    51    21    59 1   
    52    22    23 1   
    53    22    25 1   
    54    22    60 1   
    55    23    51 1   
    56    23    52 1   
    57    23    53 1   
    58    24    54 1   
    59    24    55 1   
    60    24    56 1   
    61    25    57 1   
    62    25    58 1   
    63    59    62 1   
    64    59    63 1   
    65    60    64 1   
    66    60    65 1   
    67    60    66 1   
@<TRIPOS>SUBSTRUCTURE
     1 LUF         1 TEMP              0 ****  ****    0 ROOT
