@<TRIPOS>MOLECULE
LUF
   66    67     1     0     0
SMALL
No Charge or Current Charge


@<TRIPOS>ATOM
      1 C4           8.7810    -0.1460    -0.4340 c6         1 LUF      -0.071400
      2 C5           7.9680    -1.3980    -0.0620 c6         1 LUF      -0.038200
      3 C6           6.4510    -1.1920    -0.1090 c2         1 LUF      -0.111400
      4 C10          3.6190     0.1400     1.1020 c3         1 LUF      -0.041200
      5 C13          1.3750    -0.9810     1.1200 c2         1 LUF      -0.225200
      6 C15         -0.1360    -1.1190     1.0840 c3         1 LUF      -0.035200
      7 C17         -2.1940    -1.3000    -0.4270 c2         1 LUF      -0.104400
      8 C20         -5.1230     0.2160     0.3870 c3         1 LUF      -0.026200
      9 C21         -2.7700    -2.6630    -0.0600 c3         1 LUF      -0.056900
     10 C22         -6.6320     0.2710     0.2600 c2         1 LUF      -0.091400
     11 C24         -7.5200    -0.7160     0.4090 ce         1 LUF      -0.291200
     12 C25         -8.8870    -0.2510     0.2130 c          1 LUF       0.657300
     13 O1          -8.8310     1.0840    -0.0690 os         1 LUF      -0.461100
     14 C23         -7.4510     1.5200    -0.0630 c5         1 LUF       0.410500
     15 O2          -7.1460     2.0110    -1.3520 oh         1 LUF      -0.632000
     16 C18         -4.4280    -0.1340    -0.9440 c3         1 LUF      -0.032200
     17 C19         -2.9190    -0.2270    -0.7960 c2         1 LUF      -0.229200
     18 C16         -0.6740    -1.2570    -0.3570 c3         1 LUF      -0.040200
     19 C12          2.1000     0.1490     1.0120 c2         1 LUF      -0.109400
     20 C14          1.5220     1.5450     0.8090 c3         1 LUF      -0.055900
     21 C3           5.8670     0.0350    -0.1670 c2         1 LUF      -0.105400
     22 C1           6.7040     1.3440    -0.2220 c6         1 LUF      -0.000800
     23 C9           6.6800     1.8820    -1.6890 c3         1 LUF      -0.081100
     24 C11          5.7060    -2.5230    -0.0830 c3         1 LUF      -0.055900
     25 C2           8.1710     1.0940     0.2410 c6         1 LUF      -0.068400
     26 H1           9.8250    -0.2730    -0.1170 hc         1 LUF       0.041200
     27 H2           8.8040    -0.0200    -1.5240 hc         1 LUF       0.041200
     28 H3           8.2570    -2.2130    -0.7410 hc         1 LUF       0.043700
     29 H4           8.2480    -1.7290     0.9470 hc         1 LUF       0.043700
     30 H11          3.9550    -0.7780     1.5970 hc         1 LUF       0.047200
     31 H12          3.9640     0.9580     1.7440 hc         1 LUF       0.047200
     32 H13          1.8870    -1.9340     1.2640 ha         1 LUF       0.165000
     33 H14         -0.4360    -1.9930     1.6730 hc         1 LUF       0.044700
     34 H15         -0.6170    -0.2590     1.5650 hc         1 LUF       0.044700
     35 H16         -4.7420     1.1770     0.7540 hc         1 LUF       0.055700
     36 H17         -4.8450    -0.5330     1.1370 hc         1 LUF       0.055700
     37 H18         -2.4870    -2.9530     0.9590 hc         1 LUF       0.040700
     38 H19         -3.8640    -2.6880    -0.1000 hc         1 LUF       0.040700
     39 H20         -2.4030    -3.4400    -0.7400 hc         1 LUF       0.040700
     40 H22         -7.3060    -1.7550     0.6470 ha         1 LUF       0.227000
     41 H24         -7.3190     2.3140     0.6860 h2         1 LUF       0.067700
     42 H25         -7.8700     2.6380    -1.5590 ho         1 LUF       0.467000
     43 H26         -4.8410    -1.0740    -1.3290 hc         1 LUF       0.057200
     44 H27         -4.6780     0.6270    -1.6940 hc         1 LUF       0.057200
     45 H28         -2.4080     0.7060    -1.0410 ha         1 LUF       0.167000
     46 H29         -0.3010    -0.4050    -0.9390 hc         1 LUF       0.046700
     47 H30         -0.2410    -2.1500    -0.8250 hc         1 LUF       0.046700
     48 H31          1.7870     2.2040     1.6440 hc         1 LUF       0.038700
     49 H32          1.9060     2.0050    -0.1090 hc         1 LUF       0.038700
     50 H33          0.4310     1.5470     0.7290 hc         1 LUF       0.038700
     51 H35          7.3420     2.7480    -1.8080 hc         1 LUF       0.033033
     52 H36          7.0020     1.1190    -2.4060 hc         1 LUF       0.033033
     53 H37          5.6770     2.2010    -1.9920 hc         1 LUF       0.033033
     54 H38          5.9420    -3.1200    -0.9720 hc         1 LUF       0.038700
     55 H39          5.9980    -3.1120     0.7950 hc         1 LUF       0.038700
     56 H40          4.6170    -2.4240    -0.0440 hc         1 LUF       0.038700
     57 H41          8.1990     0.9510     1.3300 hc         1 LUF       0.040200
     58 H42          8.7940     1.9740     0.0330 hc         1 LUF       0.040200
     59 C7           4.3100     0.2180    -0.2800 c3         1 LUF      -0.032200
     60 C8           6.1100     2.4620     0.6950 c3         1 LUF      -0.081100
     61 O3          -9.9050    -0.9190     0.2850 o          1 LUF      -0.475000
     62 H6           3.8290    -0.5480    -0.9210 hc         1 LUF       0.044200
     63 H7           4.0020     1.1610    -0.7700 hc         1 LUF       0.044200
     64 H8           5.1110     2.7850     0.3810 hc         1 LUF       0.033033
     65 H9           6.0410     2.1260     1.7370 hc         1 LUF       0.033033
     66 H10          6.7450     3.3570     0.6870 hc         1 LUF       0.033033
@<TRIPOS>BOND
     1     1     2 1   
     2     1    25 1   
     3     1    26 1   
     4     1    27 1   
     5     2     3 1   
     6     2    28 1   
     7     2    29 1   
     8     3    21 2   
     9     3    24 1   
    10     4    19 1   
    11     4    30 1   
    12     4    31 1   
    13     4    59 1   
    14     5     6 1   
    15     5    19 2   
    16     5    32 1   
    17     6    18 1   
    18     6    33 1   
    19     6    34 1   
    20     7     9 1   
    21     7    17 2   
    22     7    18 1   
    23     8    10 1   
    24     8    16 1   
    25     8    35 1   
    26     8    36 1   
    27     9    37 1   
    28     9    38 1   
    29     9    39 1   
    30    10    11 2   
    31    10    14 1   
    32    11    12 1   
    33    11    40 1   
    34    12    13 1   
    35    12    61 2   
    36    13    14 1   
    37    14    15 1   
    38    14    41 1   
    39    15    42 1   
    40    16    17 1   
    41    16    43 1   
    42    16    44 1   
    43    17    45 1   
    44    18    46 1   
    45    18    47 1   
    46    19    20 1   
    47    20    48 1   
    48    20    49 1   
    49    20    50 1   
    50    21    22 1   
    51    21    59 1   
    52    22    23 1   
    53    22    25 1   
    54    22    60 1   
    55    23    51 1   
    56    23    52 1   
    57    23    53 1   
    58    24    54 1   
    59    24    55 1   
    60    24    56 1   
    61    25    57 1   
    62    25    58 1   
    63    59    62 1   
    64    59    63 1   
    65    60    64 1   
    66    60    65 1   
    67    60    66 1   
@<TRIPOS>SUBSTRUCTURE
     1 LUF         1 TEMP              0 ****  ****    0 ROOT
