@<TRIPOS>MOLECULE
LUG
   39    41     1     0     0
SMALL
abcg2


@<TRIPOS>ATOM
      1 F2          -2.4400     4.9180     1.1280 f          1 LUG      -0.152000
      2 C11         -2.5230     3.6130     0.8730 ca         1 LUG       0.183000
      3 C12         -1.5310     3.0290     0.1140 ca         1 LUG       0.077000
      4 F1          -0.5450     3.7960    -0.3590 f          1 LUG      -0.148000
      5 C10         -3.5960     2.8750     1.3320 ca         1 LUG      -0.171000
      6 C9          -3.6530     1.5320     1.0120 ca         1 LUG      -0.038000
      7 C8          -2.6460     0.9140     0.2700 ca         1 LUG      -0.191500
      8 C13         -2.7420    -0.4960    -0.0460 cc         1 LUG       0.474500
      9 N2          -2.0580    -1.1950    -0.8780 nd         1 LUG      -0.370000
     10 N3          -2.5140    -2.4860    -0.8250 nd         1 LUG      -0.422000
     11 C14         -3.4790    -2.4770     0.0430 cc         1 LUG       0.676900
     12 N4          -4.2790    -3.4760     0.4190 nu         1 LUG      -0.917100
     13 C15         -4.0210    -4.8340    -0.0190 c3         1 LUG       0.224800
     14 C16         -5.2400    -5.7040     0.2430 c3         1 LUG       0.136800
     15 N5          -4.9680    -7.0650    -0.1840 n8         1 LUG      -0.994200
     16 O1          -3.6720    -1.2590     0.5750 os         1 LUG      -0.309000
     17 C7          -1.5400     1.6670    -0.1820 ca         1 LUG       0.332000
     18 N1          -0.5320     1.1130    -0.9430 nu         1 LUG      -0.959000
     19 C3           0.8240     1.3280    -0.7120 ca         1 LUG       0.274000
     20 C4           1.3510     1.7780     0.4950 ca         1 LUG      -0.132000
     21 C5           2.7150     1.9640     0.6620 ca         1 LUG      -0.067000
     22 C6           3.5780     1.6750    -0.3840 ca         1 LUG       0.192000
     23 I1           5.6460     1.9430    -0.1410 i          1 LUG      -0.301000
     24 C1           3.0900     1.2030    -1.5940 ca         1 LUG      -0.098000
     25 C2           1.7280     1.0480    -1.7340 ca         1 LUG       0.144000
     26 F3           1.2440     0.5980    -2.9000 f          1 LUG      -0.167000
     27 H10         -4.3740     3.3460     1.9160 ha         1 LUG       0.142000
     28 H9          -4.5010     0.9580     1.3570 ha         1 LUG       0.133000
     29 HN4         -4.7870    -3.3540     1.2820 hn         1 LUG       0.499000
     30 H15         -3.8010    -4.8160    -1.0880 h1         1 LUG       0.068200
     31 H15A        -3.1490    -5.2580     0.4880 h1         1 LUG       0.068200
     32 H16         -5.4440    -5.7150     1.3170 h1         1 LUG       0.034200
     33 H16A        -6.1140    -5.2460    -0.2380 h1         1 LUG       0.034200
     34 HN5         -5.7140    -7.6710     0.1290 hn         1 LUG       0.402000
     35 HN5A        -4.9840    -7.1120    -1.1950 hn         1 LUG       0.402000
     36 HN1         -0.7680     0.2200    -1.3670 hn         1 LUG       0.539000
     37 H4           0.6960     1.9690     1.3360 ha         1 LUG       0.124000
     38 H5           3.0850     2.3180     1.6130 ha         1 LUG       0.131000
     39 H1           3.7390     0.9670    -2.4270 ha         1 LUG       0.146000
@<TRIPOS>BOND
     1     1     2 1   
     2     2     3 ar  
     3     2     5 ar  
     4     3     4 1   
     5     3    17 ar  
     6     5     6 ar  
     7     5    27 1   
     8     6     7 ar  
     9     6    28 1   
    10     7     8 1   
    11     7    17 ar  
    12     8     9 2   
    13     8    16 1   
    14     9    10 1   
    15    10    11 2   
    16    11    12 1   
    17    11    16 1   
    18    12    13 1   
    19    12    29 1   
    20    13    14 1   
    21    13    30 1   
    22    13    31 1   
    23    14    15 1   
    24    14    32 1   
    25    14    33 1   
    26    15    34 1   
    27    15    35 1   
    28    17    18 1   
    29    18    19 1   
    30    18    36 1   
    31    19    20 ar  
    32    19    25 ar  
    33    20    21 ar  
    34    20    37 1   
    35    21    22 ar  
    36    21    38 1   
    37    22    23 1   
    38    22    24 ar  
    39    24    25 ar  
    40    24    39 1   
    41    25    26 1   
@<TRIPOS>SUBSTRUCTURE
     1 LUG         1 TEMP              0 ****  ****    0 ROOT
