@<TRIPOS>MOLECULE
LUG
   39    41     1     0     0
SMALL
No Charge or Current Charge


@<TRIPOS>ATOM
      1 F2          -2.6690     5.0280     1.2530 f          1 LUG      -0.152000
      2 C11         -2.6640     3.7120     0.9400 ca         1 LUG       0.183000
      3 C12         -1.5660     3.1480     0.2720 ca         1 LUG       0.077000
      4 F1          -0.5370     3.9580    -0.0880 f          1 LUG      -0.148000
      5 C10         -3.7680     2.9230     1.2770 ca         1 LUG      -0.171000
      6 C9          -3.7870     1.5640     0.9330 ca         1 LUG      -0.038000
      7 C8          -2.6910     0.9680     0.2650 ca         1 LUG      -0.191500
      8 C13         -2.8000    -0.4490    -0.1190 cc         1 LUG       0.474500
      9 N2          -2.1710    -1.0910    -1.0970 nd         1 LUG      -0.370000
     10 N3          -2.6280    -2.3840    -1.0590 nd         1 LUG      -0.422000
     11 C14         -3.4980    -2.4180    -0.0720 cc         1 LUG       0.676900
     12 N4          -4.2030    -3.5110     0.3250 nu         1 LUG      -0.917100
     13 C15         -4.0830    -4.8740    -0.2310 c3         1 LUG       0.224800
     14 C16         -5.1240    -5.8490     0.3930 c3         1 LUG       0.136800
     15 N5          -5.0420    -7.2330    -0.1410 n8         1 LUG      -0.994200
     16 O1          -3.6650    -1.2450     0.5630 os         1 LUG      -0.309000
     17 C7          -1.5600     1.7650    -0.0570 ca         1 LUG       0.332000
     18 N1          -0.4580     1.1780    -0.7070 nu         1 LUG      -0.959000
     19 C3           0.9350     1.3480    -0.6150 ca         1 LUG       0.274000
     20 C4           1.5140     1.9350     0.5290 ca         1 LUG      -0.132000
     21 C5           2.9100     2.0840     0.6260 ca         1 LUG      -0.067000
     22 C6           3.7410     1.6360    -0.4140 ca         1 LUG       0.192000
     23 I1           5.8880     1.8650    -0.2580 i          1 LUG      -0.301000
     24 C1           3.1830     1.0300    -1.5490 ca         1 LUG      -0.098000
     25 C2           1.7890     0.8810    -1.6460 ca         1 LUG       0.144000
     26 F3           1.2690     0.2840    -2.7460 f          1 LUG      -0.167000
     27 H10         -4.6170     3.3700     1.7890 ha         1 LUG       0.142000
     28 H9          -4.6700     0.9780     1.1820 ha         1 LUG       0.133000
     29 HN4         -4.7950    -3.3520     1.1380 hn         1 LUG       0.499000
     30 H15         -4.2300    -4.8470    -1.3200 h1         1 LUG       0.068200
     31 H15A        -3.0730    -5.2660    -0.0440 h1         1 LUG       0.068200
     32 H16         -4.9670    -5.8910     1.4800 h1         1 LUG       0.034200
     33 H16A        -6.1370    -5.4640     0.2090 h1         1 LUG       0.034200
     34 HN5         -5.7750    -7.8060     0.2980 hn         1 LUG       0.402000
     35 HN5A        -5.3100    -7.2300    -1.1340 hn         1 LUG       0.402000
     36 HN1         -0.7230     0.3820    -1.2970 hn         1 LUG       0.539000
     37 H4           0.8860     2.2650     1.3510 ha         1 LUG       0.124000
     38 H5           3.3500     2.5400     1.5090 ha         1 LUG       0.131000
     39 H1           3.8260     0.6750    -2.3480 ha         1 LUG       0.146000
@<TRIPOS>BOND
     1     1     2 1   
     2     2     3 ar  
     3     2     5 ar  
     4     3     4 1   
     5     3    17 ar  
     6     5     6 ar  
     7     5    27 1   
     8     6     7 ar  
     9     6    28 1   
    10     7     8 1   
    11     7    17 ar  
    12     8     9 2   
    13     8    16 1   
    14     9    10 1   
    15    10    11 2   
    16    11    12 1   
    17    11    16 1   
    18    12    13 1   
    19    12    29 1   
    20    13    14 1   
    21    13    30 1   
    22    13    31 1   
    23    14    15 1   
    24    14    32 1   
    25    14    33 1   
    26    15    34 1   
    27    15    35 1   
    28    17    18 1   
    29    18    19 1   
    30    18    36 1   
    31    19    20 ar  
    32    19    25 ar  
    33    20    21 ar  
    34    20    37 1   
    35    21    22 ar  
    36    21    38 1   
    37    22    23 1   
    38    22    24 ar  
    39    24    25 ar  
    40    24    39 1   
    41    25    26 1   
@<TRIPOS>SUBSTRUCTURE
     1 LUG         1 TEMP              0 ****  ****    0 ROOT
