@<TRIPOS>MOLECULE
LUI
   53    55     1     0     0
SMALL
bcc


@<TRIPOS>ATOM
      1 C4          -1.5140    -0.1730    -0.1390 ca         1 LUI      -0.176000
      2 C5          -2.5270     0.7690    -0.1830 ca         1 LUI       0.169100
      3 C6          -2.2290     2.1240    -0.3720 ca         1 LUI      -0.241000
      4 C7           1.4940     2.0410    -0.5910 c          1 LUI       0.722100
      5 C10          0.9130    -0.7190    -0.2310 cc         1 LUI      -0.127400
      6 C13          0.1080    -4.3290    -1.0040 ca         1 LUI      -0.129500
      7 C15          0.1440    -4.0500     1.3800 ca         1 LUI      -0.129500
      8 C20          4.6510     1.6740     0.6250 c3         1 LUI      -0.082700
      9 C21          6.0160     2.2730     0.3010 c3         1 LUI      -0.085600
     10 C22          3.9170     2.5100     1.6680 c3         1 LUI      -0.085600
     11 C26         -6.1320     0.4230     0.1950 c          1 LUI       0.676100
     12 O28         -6.1430    -0.7480     0.5140 o          1 LUI      -0.563100
     13 N27         -7.2320     1.1690     0.0550 nt         1 LUI      -0.683000
     14 C25         -4.8480     1.1910    -0.0790 c3         1 LUI       0.048400
     15 O24         -3.7800     0.2910    -0.0320 os         1 LUI      -0.284900
     16 C1          -0.9140     2.5100    -0.5000 ca         1 LUI      -0.026000
     17 C3          -0.1780     0.2180    -0.2730 ca         1 LUI       0.065200
     18 C9           2.1920    -0.2780    -0.3520 cd         1 LUI       0.099400
     19 N18          3.7560    -1.4360     1.1190 n8         1 LUI      -0.890800
     20 N8           2.4830     1.0660    -0.5240 n          1 LUI      -0.349000
     21 C19          3.8580     1.5480    -0.6770 c3         1 LUI       0.089000
     22 O23          1.7700     3.2150    -0.7670 o          1 LUI      -0.631500
     23 C2           0.1200     1.5760    -0.4520 ca         1 LUI      -0.208600
     24 C11          0.6020    -2.1610    -0.0570 ca         1 LUI      -0.038800
     25 C16          0.4510    -2.7060     1.2160 ca         1 LUI      -0.122000
     26 C14         -0.0230    -4.8650     0.2700 ca         1 LUI      -0.125000
     27 C12          0.4130    -2.9850    -1.1650 ca         1 LUI      -0.122000
     28 H4          -1.7680    -1.2150     0.0050 ha         1 LUI       0.163000
     29 H6          -2.9990     2.8800    -0.4210 ha         1 LUI       0.134000
     30 H13         -0.0280    -4.9570    -1.8740 ha         1 LUI       0.132500
     31 H15          0.0300    -4.4580     2.3760 ha         1 LUI       0.132500
     32 H17          2.9780    -2.2080    -0.7260 h1         1 LUI       0.049200
     33 H17A         4.1810    -0.9580    -0.8470 h1         1 LUI       0.049200
     34 H20          4.7970     0.6750     1.0450 hc         1 LUI       0.075700
     35 H21          6.6400     2.3220     1.1920 hc         1 LUI       0.034867
     36 H21A         6.5530     1.6770    -0.4400 hc         1 LUI       0.034867
     37 H21B         5.9230     3.2880    -0.0950 hc         1 LUI       0.034867
     38 H22          2.9750     2.0450     1.9600 hc         1 LUI       0.034867
     39 H22A         4.5230     2.6080     2.5710 hc         1 LUI       0.034867
     40 H22B         3.6970     3.5110     1.2970 hc         1 LUI       0.034867
     41 HN27        -8.1380     0.7860     0.2570 hn         1 LUI       0.315000
     42 HN2A        -7.2050     2.1400    -0.2000 hn         1 LUI       0.315000
     43 H25         -4.9180     1.6880    -1.0540 h1         1 LUI       0.048200
     44 H25A        -4.7530     1.9810     0.6780 h1         1 LUI       0.048200
     45 H1          -0.6760     3.5550    -0.6410 ha         1 LUI       0.153000
     46 HN18         3.0300    -1.8910     1.6570 hn         1 LUI       0.349300
     47 HN1A         4.5630    -2.0460     1.1520 hn         1 LUI       0.349300
     48 H19          3.7930     2.5250    -1.1520 h1         1 LUI       0.061700
     49 H19A         4.3850     0.9030    -1.3800 h1         1 LUI       0.061700
     50 H16          0.5470    -2.0650     2.0850 ha         1 LUI       0.136000
     51 H14         -0.2610    -5.9120     0.3970 ha         1 LUI       0.131000
     52 H12          0.5130    -2.5680    -2.1590 ha         1 LUI       0.136000
     53 C17          3.3220    -1.2780    -0.2610 c3         1 LUI       0.182000
@<TRIPOS>BOND
     1     1     2 ar  
     2     1    17 ar  
     3     1    28 1   
     4     2     3 ar  
     5     2    15 1   
     6     3    16 ar  
     7     3    29 1   
     8     4    20 1   
     9     4    22 2   
    10     4    23 1   
    11     5    17 1   
    12     5    18 2   
    13     5    24 1   
    14     6    26 ar  
    15     6    27 ar  
    16     6    30 1   
    17     7    25 ar  
    18     7    26 ar  
    19     7    31 1   
    20     8     9 1   
    21     8    10 1   
    22     8    21 1   
    23     8    34 1   
    24     9    35 1   
    25     9    36 1   
    26     9    37 1   
    27    10    38 1   
    28    10    39 1   
    29    10    40 1   
    30    11    12 2   
    31    11    13 1   
    32    11    14 1   
    33    13    41 1   
    34    13    42 1   
    35    14    15 1   
    36    14    43 1   
    37    14    44 1   
    38    16    23 ar  
    39    16    45 1   
    40    17    23 ar  
    41    18    20 1   
    42    18    53 1   
    43    19    46 1   
    44    19    47 1   
    45    19    53 1   
    46    20    21 1   
    47    21    48 1   
    48    21    49 1   
    49    24    25 ar  
    50    24    27 ar  
    51    25    50 1   
    52    26    51 1   
    53    27    52 1   
    54    32    53 1   
    55    33    53 1   
@<TRIPOS>SUBSTRUCTURE
     1 LUI         1 TEMP              0 ****  ****    0 ROOT
