@<TRIPOS>MOLECULE
LUI
   53    55     1     0     0
SMALL
No Charge or Current Charge


@<TRIPOS>ATOM
      1 C4          -1.5370    -0.1360    -0.1380 ca         1 LUI      -0.158000
      2 C5          -2.5930     0.7840    -0.1720 ca         1 LUI       0.169100
      3 C6          -2.3130     2.1530    -0.3390 ca         1 LUI      -0.223000
      4 C7           1.4910     2.1030    -0.5850 c          1 LUI       0.579600
      5 C10          0.8970    -0.6810    -0.2290 cc         1 LUI      -0.127400
      6 C13          0.3050    -4.3420    -0.9640 ca         1 LUI      -0.111500
      7 C15          0.1580    -3.9890     1.4400 ca         1 LUI      -0.111500
      8 C20          4.7310     1.7370     0.6160 c3         1 LUI      -0.082700
      9 C21          6.2000     2.1190     0.3270 c3         1 LUI      -0.085600
     10 C22          4.0860     2.7240     1.6160 c3         1 LUI      -0.085600
     11 C26         -6.3590     0.3810     0.1100 c          1 LUI       0.609100
     12 O28         -6.4300    -0.8320     0.2460 o          1 LUI      -0.563100
     13 N27         -7.4920     1.1230     0.1010 nt         1 LUI      -0.616000
     14 C25         -5.0360     1.1650    -0.0590 c3         1 LUI       0.071600
     15 O24         -3.8780     0.2990    -0.0380 os         1 LUI      -0.308100
     16 C1          -0.9840     2.5820    -0.4720 ca         1 LUI      -0.008000
     17 C3          -0.1960     0.2870    -0.2670 ca         1 LUI       0.065200
     18 C9           2.2250    -0.2560    -0.3550 cd         1 LUI       0.099400
     19 N18          3.6190    -1.7760     1.0900 n8         1 LUI      -1.001200
     20 N8           2.5160     1.1210    -0.5370 n          1 LUI      -0.282000
     21 C19          3.9220     1.6100    -0.7040 c3         1 LUI       0.089000
     22 O23          1.7350     3.2950    -0.7430 o          1 LUI      -0.556000
     23 C2           0.0760     1.6490    -0.4370 ca         1 LUI      -0.208600
     24 C11          0.6410    -2.1100    -0.0390 ca         1 LUI      -0.038800
     25 C16          0.4230    -2.6210     1.2550 ca         1 LUI      -0.104000
     26 C14          0.1020    -4.8510     0.3310 ca         1 LUI      -0.107000
     27 C12          0.5690    -2.9740    -1.1480 ca         1 LUI      -0.104000
     28 H4          -1.7740    -1.1880    -0.0110 ha         1 LUI       0.145000
     29 H6          -3.1060     2.8950    -0.3700 ha         1 LUI       0.116000
     30 H13          0.2550    -5.0070    -1.8230 ha         1 LUI       0.114500
     31 H15         -0.0070    -4.3810     2.4410 ha         1 LUI       0.114500
     32 H17          3.0950    -2.1610    -0.9160 h1         1 LUI       0.049200
     33 H17A         4.3010    -0.9160    -0.7000 h1         1 LUI       0.049200
     34 H20          4.7490     0.7540     1.1010 hc         1 LUI       0.075700
     35 H21          6.7820     2.1540     1.2560 hc         1 LUI       0.034867
     36 H21A         6.6690     1.3830    -0.3370 hc         1 LUI       0.034867
     37 H21B         6.2610     3.1030    -0.1540 hc         1 LUI       0.034867
     38 H22          3.0790     2.3950     1.8980 hc         1 LUI       0.034867
     39 H22A         4.6830     2.7910     2.5340 hc         1 LUI       0.034867
     40 H22B         4.0130     3.7290     1.1820 hc         1 LUI       0.034867
     41 HN27        -8.3840     0.6620     0.2070 hn         1 LUI       0.315000
     42 HN2A        -7.4430     2.1260    -0.0110 hn         1 LUI       0.315000
     43 H25         -5.0940     1.7090    -1.0100 h1         1 LUI       0.048200
     44 H25A        -4.9830     1.9010     0.7530 h1         1 LUI       0.048200
     45 H1          -0.7810     3.6440    -0.6030 ha         1 LUI       0.135000
     46 HN18         2.7640    -2.2310     1.4310 hn         1 LUI       0.404500
     47 HN1A         4.3030    -2.5410     1.0550 hn         1 LUI       0.404500
     48 H19          3.9290     2.5870    -1.2020 h1         1 LUI       0.061700
     49 H19A         4.4520     0.9520    -1.4030 h1         1 LUI       0.061700
     50 H16          0.4550    -1.9560     2.1140 ha         1 LUI       0.118000
     51 H14         -0.1040    -5.9100     0.4740 ha         1 LUI       0.113000
     52 H12          0.7190    -2.5830    -2.1520 ha         1 LUI       0.118000
     53 C17          3.3600    -1.2980    -0.2920 c3         1 LUI       0.182000
@<TRIPOS>BOND
     1     1     2 ar  
     2     1    17 ar  
     3     1    28 1   
     4     2     3 ar  
     5     2    15 1   
     6     3    16 ar  
     7     3    29 1   
     8     4    20 1   
     9     4    22 2   
    10     4    23 1   
    11     5    17 1   
    12     5    18 2   
    13     5    24 1   
    14     6    26 ar  
    15     6    27 ar  
    16     6    30 1   
    17     7    25 ar  
    18     7    26 ar  
    19     7    31 1   
    20     8     9 1   
    21     8    10 1   
    22     8    21 1   
    23     8    34 1   
    24     9    35 1   
    25     9    36 1   
    26     9    37 1   
    27    10    38 1   
    28    10    39 1   
    29    10    40 1   
    30    11    12 2   
    31    11    13 1   
    32    11    14 1   
    33    13    41 1   
    34    13    42 1   
    35    14    15 1   
    36    14    43 1   
    37    14    44 1   
    38    16    23 ar  
    39    16    45 1   
    40    17    23 ar  
    41    18    20 1   
    42    18    53 1   
    43    19    46 1   
    44    19    47 1   
    45    19    53 1   
    46    20    21 1   
    47    21    48 1   
    48    21    49 1   
    49    24    25 ar  
    50    24    27 ar  
    51    25    50 1   
    52    26    51 1   
    53    27    52 1   
    54    32    53 1   
    55    33    53 1   
@<TRIPOS>SUBSTRUCTURE
     1 LUI         1 TEMP              0 ****  ****    0 ROOT
