@<TRIPOS>MOLECULE
LUJ
   95    98     1     0     0
SMALL
abcg2


@<TRIPOS>ATOM
      1 CBR        104.6360    10.2380    25.2110 c3         1 LUJ      -0.090100
      2 CBQ        103.2960    10.4810    24.5220 c3         1 LUJ      -0.077400
      3 CBP        103.4550    10.8330    23.0420 c3         1 LUJ      -0.079400
      4 CBG        102.1280    11.0990    22.3060 c6         1 LUJ      -0.109700
      5 CBI        102.1520    10.5560    20.8730 c6         1 LUJ       0.166300
      6 OAF        100.9040    10.8200    20.2070 os         1 LUJ      -0.485000
      7 CBN        102.3520     9.0460    20.7720 c3         1 LUJ       0.159600
      8 OAM        103.7350     8.7730    20.5290 oh         1 LUJ      -0.735000
      9 CBE        101.7620    12.5870    22.2730 c6         1 LUJ       0.134300
     10 OAI        101.5670    13.1270    23.5880 oh         1 LUJ      -0.668000
     11 CBD        100.4570    12.8170    21.5140 c6         1 LUJ       0.148500
     12 NAP        100.0570    14.2170    21.3860 n8         1 LUJ      -0.965200
     13 CBC        100.5230    12.1710    20.1320 c6         1 LUJ       0.392300
     14 OAB        101.4250    12.9510    19.3590 os         1 LUJ      -0.508000
     15 CAT        101.7310    12.5260    18.0290 c6         1 LUJ       0.142300
     16 CAU        103.0760    13.1720    17.6720 c6         1 LUJ       0.168500
     17 NAN        104.1650    12.8160    18.5830 n8         1 LUJ      -0.994200
     18 CAX        103.4600    12.8210    16.2410 c6         1 LUJ      -0.115400
     19 CAW        102.4030    13.2270    15.2090 c6         1 LUJ       0.160500
     20 NAO        102.7690    12.8620    13.8360 n8         1 LUJ      -0.969200
     21 CAV        101.0570    12.6110    15.5780 c6         1 LUJ       0.165300
     22 OAE        100.0640    13.0810    14.6720 oh         1 LUJ      -0.716000
     23 CAS        100.6600    12.9400    17.0250 c6         1 LUJ       0.129300
     24 O1          99.4510    12.2320    17.3260 os         1 LUJ      -0.493000
     25 C1          98.2370    12.9170    17.2010 c5         1 LUJ       0.382300
     26 C2          97.2090    11.9910    16.5650 c5         1 LUJ       0.125300
     27 O2          97.3000    12.0940    15.1560 oh         1 LUJ      -0.703000
     28 O4          97.7110    13.2730    18.4700 os         1 LUJ      -0.442000
     29 C4          96.3690    12.7610    18.6360 c5         1 LUJ       0.144300
     30 C5          96.3350    11.5890    19.5970 c3         1 LUJ       0.148600
     31 O5          96.6920    12.0670    20.8940 oh         1 LUJ      -0.701000
     32 C3          95.8900    12.4020    17.2200 c5         1 LUJ       0.126300
     33 O3          95.3530    13.5300    16.5390 os         1 LUJ      -0.424000
     34 CBF         93.9660    13.6470    16.6120 c6         1 LUJ       0.394300
     35 OAG         93.6070    13.9600    17.9480 os         1 LUJ      -0.448000
     36 CBM         92.1920    13.9610    18.1280 c6         1 LUJ       0.160300
     37 CBO         91.8940    14.0760    19.6120 c3         1 LUJ       0.153800
     38 NAR         92.2950    12.8660    20.3360 n8         1 LUJ      -0.990200
     39 CBL         91.5520    15.0750    17.2950 c6         1 LUJ       0.122300
     40 OAL         91.8530    16.3800    17.7880 oh         1 LUJ      -0.685000
     41 CBJ         92.0040    14.9870    15.8250 c6         1 LUJ       0.170300
     42 OAJ         91.3310    13.9020    15.1810 oh         1 LUJ      -0.672000
     43 CBH         93.5070    14.7240    15.6310 c6         1 LUJ       0.164500
     44 NAQ         94.2790    15.9510    15.8130 n8         1 LUJ      -0.975200
     45 H1         104.5020     9.9720    26.2620 hc         1 LUJ       0.032367
     46 H2         105.1820     9.4240    24.7260 hc         1 LUJ       0.032367
     47 H3         105.2660    11.1300    25.1690 hc         1 LUJ       0.032367
     48 H4         102.7540    11.2760    25.0410 hc         1 LUJ       0.040200
     49 H5         102.6720     9.5850    24.6030 hc         1 LUJ       0.040200
     50 H6         103.9850    10.0130    22.5550 hc         1 LUJ       0.047700
     51 H7         104.1060    11.7100    22.9410 hc         1 LUJ       0.047700
     52 H8         101.3200    10.5730    22.8300 hc         1 LUJ       0.067700
     53 H9         102.9610    11.0340    20.3130 h1         1 LUJ       0.051700
     54 H10        101.7420     8.6800    19.9410 h1         1 LUJ       0.039200
     55 H11        102.0190     8.5510    21.6890 h1         1 LUJ       0.039200
     56 H12        103.8690     7.8200    20.5920 ho         1 LUJ       0.507000
     57 H13        102.5650    13.1420    21.7750 h1         1 LUJ       0.037700
     58 H14        102.4280    13.3230    23.9740 ho         1 LUJ       0.444000
     59 H15         99.6650    12.2920    22.0580 h1         1 LUJ       0.085700
     60 H16        100.0670    14.6440    22.3060 hn         1 LUJ       0.404000
     61 H17        100.7500    14.7090    20.8290 hn         1 LUJ       0.404000
     62 H19         99.5420    12.1650    19.6690 h2         1 LUJ       0.126700
     63 H20        101.8360    11.4370    18.0110 h1         1 LUJ       0.056700
     64 H21        102.9390    14.2560    17.7460 h1         1 LUJ       0.074700
     65 H22        103.8840    13.0140    19.5380 hn         1 LUJ       0.401500
     66 H23        104.3370    11.8160    18.5370 hn         1 LUJ       0.401500
     67 H25        103.6260    11.7400    16.1680 hc         1 LUJ       0.050700
     68 H26        104.4050    13.3080    15.9950 hc         1 LUJ       0.050700
     69 H27        102.2860    14.3160    15.2350 h1         1 LUJ       0.077700
     70 H28        103.6680    13.2780    13.6120 hn         1 LUJ       0.389500
     71 H29        102.9080    11.8560    13.7840 hn         1 LUJ       0.389500
     72 H31        101.1430    11.5180    15.4990 h1         1 LUJ       0.031700
     73 H32         99.2460    12.5710    14.7910 ho         1 LUJ       0.524000
     74 H33        100.4850    14.0170    17.1150 h1         1 LUJ       0.071700
     75 H34         98.3820    13.8250    16.6100 h2         1 LUJ       0.084700
     76 H35         97.4400    10.9730    16.8880 h1         1 LUJ       0.057700
     77 H36         96.9210    11.3030    14.7530 ho         1 LUJ       0.511000
     78 H37         95.7620    13.5690    19.0400 h1         1 LUJ       0.125700
     79 H38         95.3190    11.1780    19.6050 h1         1 LUJ       0.024700
     80 H39         97.0260    10.8060    19.2710 h1         1 LUJ       0.024700
     81 H40         96.8210    11.3070    21.4740 ho         1 LUJ       0.495000
     82 H41         95.1590    11.5910    17.2230 h1         1 LUJ       0.055700
     83 H42         93.4940    12.6910    16.3450 h2         1 LUJ       0.025700
     84 H43         91.7860    13.0090    17.7580 h1         1 LUJ       0.035700
     85 H44         92.4530    14.9210    20.0170 h1         1 LUJ       0.041200
     86 H45         90.8250    14.3070    19.7210 h1         1 LUJ       0.041200
     87 H46         92.1790    13.0090    21.3330 hn         1 LUJ       0.394000
     88 H47         91.6810    12.0970    20.0850 hn         1 LUJ       0.394000
     89 H49         90.4660    14.9240    17.3070 h1         1 LUJ       0.019700
     90 H50         91.2960    16.5500    18.5570 ho         1 LUJ       0.497000
     91 H51         91.7510    15.9350    15.3390 h1         1 LUJ       0.059700
     92 H52         90.3790    14.0380    15.2660 ho         1 LUJ       0.445000
     93 H53         93.6170    14.3000    14.6250 h1         1 LUJ       0.042700
     94 H54         95.2570    15.7580    15.6290 hn         1 LUJ       0.407500
     95 H55         93.9820    16.6400    15.1300 hn         1 LUJ       0.407500
@<TRIPOS>BOND
     1     1     2 1   
     2     1    45 1   
     3     1    46 1   
     4     1    47 1   
     5     2     3 1   
     6     2    48 1   
     7     2    49 1   
     8     3     4 1   
     9     3    50 1   
    10     3    51 1   
    11     4     5 1   
    12     4     9 1   
    13     4    52 1   
    14     5     6 1   
    15     5     7 1   
    16     5    53 1   
    17     6    13 1   
    18     7     8 1   
    19     7    54 1   
    20     7    55 1   
    21     8    56 1   
    22     9    10 1   
    23     9    11 1   
    24     9    57 1   
    25    10    58 1   
    26    11    12 1   
    27    11    13 1   
    28    11    59 1   
    29    12    60 1   
    30    12    61 1   
    31    13    14 1   
    32    13    62 1   
    33    14    15 1   
    34    15    16 1   
    35    15    23 1   
    36    15    63 1   
    37    16    17 1   
    38    16    18 1   
    39    16    64 1   
    40    17    65 1   
    41    17    66 1   
    42    18    19 1   
    43    18    67 1   
    44    18    68 1   
    45    19    20 1   
    46    19    21 1   
    47    19    69 1   
    48    20    70 1   
    49    20    71 1   
    50    21    22 1   
    51    21    23 1   
    52    21    72 1   
    53    22    73 1   
    54    23    24 1   
    55    23    74 1   
    56    24    25 1   
    57    25    26 1   
    58    25    28 1   
    59    25    75 1   
    60    26    27 1   
    61    26    32 1   
    62    26    76 1   
    63    27    77 1   
    64    28    29 1   
    65    29    30 1   
    66    29    32 1   
    67    29    78 1   
    68    30    31 1   
    69    30    79 1   
    70    30    80 1   
    71    31    81 1   
    72    32    33 1   
    73    32    82 1   
    74    33    34 1   
    75    34    35 1   
    76    34    43 1   
    77    34    83 1   
    78    35    36 1   
    79    36    37 1   
    80    36    39 1   
    81    36    84 1   
    82    37    38 1   
    83    37    85 1   
    84    37    86 1   
    85    38    87 1   
    86    38    88 1   
    87    39    40 1   
    88    39    41 1   
    89    39    89 1   
    90    40    90 1   
    91    41    42 1   
    92    41    43 1   
    93    41    91 1   
    94    42    92 1   
    95    43    44 1   
    96    43    93 1   
    97    44    94 1   
    98    44    95 1   
@<TRIPOS>SUBSTRUCTURE
     1 LUJ         1 TEMP              0 ****  ****    0 ROOT
