@<TRIPOS>MOLECULE
LUJ
   95    98     1     0     0
SMALL
No Charge or Current Charge


@<TRIPOS>ATOM
      1 CBR        103.9620     9.3990    25.2200 c3         1 LUJ      -0.090100
      2 CBQ        103.2920    10.6510    24.6190 c3         1 LUJ      -0.077400
      3 CBP        102.7590    10.4180    23.1820 c3         1 LUJ      -0.079400
      4 CBG        101.7910    11.4910    22.5490 c6         1 LUJ      -0.109700
      5 CBI        101.3360    11.0580    21.1030 c6         1 LUJ       0.166300
      6 OAF        100.4450    12.0520    20.5450 os         1 LUJ      -0.485000
      7 CBN        100.5450     9.7060    21.0060 c3         1 LUJ       0.159600
      8 OAM        101.3770     8.5300    21.0460 oh         1 LUJ      -0.735000
      9 CBE        102.4060    12.9330    22.4700 c6         1 LUJ       0.134300
     10 OAI        102.6880    13.4600    23.7770 oh         1 LUJ      -0.668000
     11 CBD        101.4550    13.9330    21.7380 c6         1 LUJ       0.148500
     12 NAP        102.0770    15.2980    21.6670 n8         1 LUJ      -0.965200
     13 CBC        101.0170    13.3640    20.3520 c6         1 LUJ       0.392300
     14 OAB        102.1370    13.3050    19.4270 os         1 LUJ      -0.508000
     15 CAT        101.9070    12.7860    18.0770 c6         1 LUJ       0.142300
     16 CAU        103.3120    12.6970    17.3930 c6         1 LUJ       0.168500
     17 NAN        104.2410    11.8360    18.1650 n8         1 LUJ      -0.994200
     18 CAX        103.2270    12.2040    15.9390 c6         1 LUJ      -0.115400
     19 CAW        102.3740    13.1810    15.1080 c6         1 LUJ       0.160500
     20 NAO        102.3950    12.7430    13.6830 n8         1 LUJ      -0.969200
     21 CAV        100.9190    13.2970    15.6880 c6         1 LUJ       0.165300
     22 OAE        100.1720    14.2610    14.9160 oh         1 LUJ      -0.716000
     23 CAS        100.9000    13.6540    17.2300 c6         1 LUJ       0.129300
     24 O1          99.5840    13.5310    17.8600 os         1 LUJ      -0.493000
     25 C1          98.3540    14.0080    17.2640 c5         1 LUJ       0.382300
     26 C2          97.7690    12.9070    16.2810 c5         1 LUJ       0.125300
     27 O2          97.6860    13.3090    14.9000 oh         1 LUJ      -0.703000
     28 O4          97.4060    14.1040    18.3470 os         1 LUJ      -0.442000
     29 C4          96.6250    12.8790    18.3980 c5         1 LUJ       0.144300
     30 C5          97.3920    11.7090    19.1020 c3         1 LUJ       0.148600
     31 O5          97.7020    12.0090    20.4710 oh         1 LUJ      -0.701000
     32 C3          96.3570    12.6130    16.8820 c5         1 LUJ       0.126300
     33 O3          95.4410    13.6140    16.3480 os         1 LUJ      -0.424000
     34 CBF         94.0230    13.3470    16.4560 c6         1 LUJ       0.394300
     35 OAG         93.6260    13.4110    17.8400 os         1 LUJ      -0.448000
     36 CBM         92.2330    13.0720    18.0530 c6         1 LUJ       0.160300
     37 CBO         91.9730    12.9760    19.5960 c3         1 LUJ       0.153800
     38 NAR         92.6960    11.8800    20.2990 n8         1 LUJ      -0.990200
     39 CBL         91.3110    14.1230    17.3400 c6         1 LUJ       0.122300
     40 OAL         91.4620    15.4430    17.9140 oh         1 LUJ      -0.685000
     41 CBJ         91.6720    14.1470    15.8120 c6         1 LUJ       0.170300
     42 OAJ         91.2860    12.9110    15.1760 oh         1 LUJ      -0.672000
     43 CBH         93.2090    14.3970    15.6080 c6         1 LUJ       0.164500
     44 NAQ         93.5870    15.8140    15.9250 n8         1 LUJ      -0.975200
     45 H1         104.3420     9.6150    26.2260 hc         1 LUJ       0.032367
     46 H2         103.2470     8.5720    25.2950 hc         1 LUJ       0.032367
     47 H3         104.8050     9.0740    24.5980 hc         1 LUJ       0.032367
     48 H4         104.0400    11.4520    24.6160 hc         1 LUJ       0.040200
     49 H5         102.4670    10.9590    25.2740 hc         1 LUJ       0.040200
     50 H6         102.2320     9.4600    23.2220 hc         1 LUJ       0.047700
     51 H7         103.6180    10.2610    22.5170 hc         1 LUJ       0.047700
     52 H8         100.9000    11.5250    23.1910 hc         1 LUJ       0.067700
     53 H9         102.2180    10.9730    20.4510 h1         1 LUJ       0.051700
     54 H10         99.9820     9.7140    20.0630 h1         1 LUJ       0.039200
     55 H11         99.8080     9.6800    21.8210 h1         1 LUJ       0.039200
     56 H12        100.7800     7.7500    20.9650 ho         1 LUJ       0.507000
     57 H13        103.3420    12.8650    21.8940 h1         1 LUJ       0.037700
     58 H14        103.0740    12.7220    24.2930 ho         1 LUJ       0.444000
     59 H15        100.5460    14.0260    22.3510 h1         1 LUJ       0.085700
     60 H16        102.5930    15.4180    22.5470 hn         1 LUJ       0.404000
     61 H17        102.8210    15.2600    20.9610 hn         1 LUJ       0.404000
     62 H19        100.2490    14.0490    19.9650 h2         1 LUJ       0.126700
     63 H20        101.4990    11.7680    18.1550 h1         1 LUJ       0.056700
     64 H21        103.7450    13.7110    17.3900 h1         1 LUJ       0.074700
     65 H22        104.1420    12.1130    19.1490 hn         1 LUJ       0.401500
     66 H23        103.8820    10.8760    18.1570 hn         1 LUJ       0.401500
     67 H25        102.7960    11.1930    15.9050 hc         1 LUJ       0.050700
     68 H26        104.2380    12.1360    15.5140 hc         1 LUJ       0.050700
     69 H27        102.8460    14.1770    15.1520 h1         1 LUJ       0.077700
     70 H28        103.3660    12.5690    13.4020 hn         1 LUJ       0.389500
     71 H29        101.9500    11.8220    13.6110 hn         1 LUJ       0.389500
     72 H31        100.4580    12.3050    15.5770 h1         1 LUJ       0.031700
     73 H32         99.2610    13.8680    14.7920 ho         1 LUJ       0.524000
     74 H33        101.2160    14.7040    17.3210 h1         1 LUJ       0.071700
     75 H34         98.4910    14.9900    16.7920 h2         1 LUJ       0.084700
     76 H35         98.3800    11.9970    16.3530 h1         1 LUJ       0.057700
     77 H36         96.7570    13.6340    14.7890 ho         1 LUJ       0.511000
     78 H37         95.7040    13.0590    18.9640 h1         1 LUJ       0.125700
     79 H38         96.7520    10.8180    19.0600 h1         1 LUJ       0.024700
     80 H39         98.3100    11.4600    18.5560 h1         1 LUJ       0.024700
     81 H40         98.6920    12.0780    20.5120 ho         1 LUJ       0.495000
     82 H41         95.9960    11.5990    16.6620 h1         1 LUJ       0.055700
     83 H42         93.8200    12.3380    16.0660 h2         1 LUJ       0.025700
     84 H43         92.0430    12.0780    17.6220 h1         1 LUJ       0.035700
     85 H44         92.2530    13.9300    20.0630 h1         1 LUJ       0.041200
     86 H45         90.8950    12.8280    19.7550 h1         1 LUJ       0.041200
     87 H46         92.4040    11.8620    21.2840 hn         1 LUJ       0.394000
     88 H47         92.3750    10.9750    19.9350 hn         1 LUJ       0.394000
     89 H49         90.2640    13.8000    17.4430 h1         1 LUJ       0.019700
     90 H50         90.7910    15.5320    18.6290 ho         1 LUJ       0.497000
     91 H51         91.1260    14.9770    15.3400 h1         1 LUJ       0.059700
     92 H52         90.3110    12.9430    15.0540 ho         1 LUJ       0.445000
     93 H53         93.4600    14.2360    14.5490 h1         1 LUJ       0.042700
     94 H54         93.0500    16.0530    16.7730 hn         1 LUJ       0.407500
     95 H55         94.5530    15.7910    16.2700 hn         1 LUJ       0.407500
@<TRIPOS>BOND
     1     1     2 1   
     2     1    45 1   
     3     1    46 1   
     4     1    47 1   
     5     2     3 1   
     6     2    48 1   
     7     2    49 1   
     8     3     4 1   
     9     3    50 1   
    10     3    51 1   
    11     4     5 1   
    12     4     9 1   
    13     4    52 1   
    14     5     6 1   
    15     5     7 1   
    16     5    53 1   
    17     6    13 1   
    18     7     8 1   
    19     7    54 1   
    20     7    55 1   
    21     8    56 1   
    22     9    10 1   
    23     9    11 1   
    24     9    57 1   
    25    10    58 1   
    26    11    12 1   
    27    11    13 1   
    28    11    59 1   
    29    12    60 1   
    30    12    61 1   
    31    13    14 1   
    32    13    62 1   
    33    14    15 1   
    34    15    16 1   
    35    15    23 1   
    36    15    63 1   
    37    16    17 1   
    38    16    18 1   
    39    16    64 1   
    40    17    65 1   
    41    17    66 1   
    42    18    19 1   
    43    18    67 1   
    44    18    68 1   
    45    19    20 1   
    46    19    21 1   
    47    19    69 1   
    48    20    70 1   
    49    20    71 1   
    50    21    22 1   
    51    21    23 1   
    52    21    72 1   
    53    22    73 1   
    54    23    24 1   
    55    23    74 1   
    56    24    25 1   
    57    25    26 1   
    58    25    28 1   
    59    25    75 1   
    60    26    27 1   
    61    26    32 1   
    62    26    76 1   
    63    27    77 1   
    64    28    29 1   
    65    29    30 1   
    66    29    32 1   
    67    29    78 1   
    68    30    31 1   
    69    30    79 1   
    70    30    80 1   
    71    31    81 1   
    72    32    33 1   
    73    32    82 1   
    74    33    34 1   
    75    34    35 1   
    76    34    43 1   
    77    34    83 1   
    78    35    36 1   
    79    36    37 1   
    80    36    39 1   
    81    36    84 1   
    82    37    38 1   
    83    37    85 1   
    84    37    86 1   
    85    38    87 1   
    86    38    88 1   
    87    39    40 1   
    88    39    41 1   
    89    39    89 1   
    90    40    90 1   
    91    41    42 1   
    92    41    43 1   
    93    41    91 1   
    94    42    92 1   
    95    43    44 1   
    96    43    93 1   
    97    44    94 1   
    98    44    95 1   
@<TRIPOS>SUBSTRUCTURE
     1 LUJ         1 TEMP              0 ****  ****    0 ROOT
