@<TRIPOS>MOLECULE
LUM
   28    30     1     0     0
SMALL
abcg2


@<TRIPOS>ATOM
      1 N1           1.4270    -0.0580    -2.3980 ns         1 LUM      -0.592900
      2 C2           0.8260    -0.0320    -3.6230 c          1 LUM       0.635000
      3 C10          0.7610    -0.0350    -1.2020 ca         1 LUM       0.473900
      4 O2           1.4440    -0.0510    -4.6630 o          1 LUM      -0.535000
      5 N3          -0.5540     0.0180    -3.5950 ns         1 LUM      -0.479500
      6 C4          -1.3790     0.0490    -2.4960 c          1 LUM       0.493500
      7 O4          -2.5820     0.0960    -2.5950 o          1 LUM      -0.472000
      8 C4A         -0.6560     0.0200    -1.2080 ca         1 LUM       0.211500
      9 N5          -1.3420     0.0460    -0.1000 nb         1 LUM      -0.538000
     10 C5A         -0.6610     0.0190     1.0550 ca         1 LUM       0.185000
     11 C6          -1.3560     0.0490     2.2850 ca         1 LUM      -0.054000
     12 C9A          0.7570    -0.0400     1.0550 ca         1 LUM       0.295000
     13 C7          -0.6860     0.0210     3.4760 ca         1 LUM      -0.077300
     14 C7M         -1.4330     0.0660     4.7730 c3         1 LUM      -0.049800
     15 C8           0.7450    -0.0470     3.4760 ca         1 LUM      -0.031300
     16 C8M          1.4830    -0.0960     4.7770 c3         1 LUM      -0.056800
     17 C9           1.4330    -0.0730     2.2910 ca         1 LUM      -0.106000
     18 N10          1.4520    -0.0650    -0.0970 nb         1 LUM      -0.695000
     19 HN1          2.4380    -0.0930    -2.3790 hn         1 LUM       0.475000
     20 HN3         -1.0040     0.0390    -4.5020 hn         1 LUM       0.350500
     21 HC6         -2.4380     0.0960     2.2590 ha         1 LUM       0.139000
     22 H7M1        -1.2150    -0.8030     5.3960 hc         1 LUM       0.048033
     23 H7M2        -1.1630     0.9500     5.3550 hc         1 LUM       0.048033
     24 H7M3        -2.5080     0.0940     4.6040 hc         1 LUM       0.048033
     25 H8M1         1.2590     0.7740     5.3970 hc         1 LUM       0.050033
     26 H8M2         1.2010    -0.9780     5.3560 hc         1 LUM       0.050033
     27 H8M3         2.5590    -0.1280     4.6200 hc         1 LUM       0.050033
     28 HC9          2.5150    -0.1200     2.2840 ha         1 LUM       0.136000
@<TRIPOS>BOND
     1     1     2 1   
     2     1     3 1   
     3     1    19 1   
     4     2     4 2   
     5     2     5 1   
     6     3     8 ar  
     7     3    18 ar  
     8     5     6 1   
     9     5    20 1   
    10     6     7 2   
    11     6     8 1   
    12     8     9 ar  
    13     9    10 ar  
    14    10    11 ar  
    15    10    12 ar  
    16    11    13 ar  
    17    11    21 1   
    18    12    17 ar  
    19    12    18 ar  
    20    13    14 1   
    21    13    15 ar  
    22    14    22 1   
    23    14    23 1   
    24    14    24 1   
    25    15    16 1   
    26    15    17 ar  
    27    16    25 1   
    28    16    26 1   
    29    16    27 1   
    30    17    28 1   
@<TRIPOS>SUBSTRUCTURE
     1 LUM         1 TEMP              0 ****  ****    0 ROOT
