@<TRIPOS>MOLECULE
LUM
   28    30     1     0     0
SMALL
No Charge or Current Charge


@<TRIPOS>ATOM
      1 N1           1.3900    -0.0640    -2.4020 ns         1 LUM      -0.592900
      2 C2           0.8670    -0.0390    -3.6510 c          1 LUM       0.635000
      3 C10          0.6700    -0.0340    -1.2270 ca         1 LUM       0.473900
      4 O2           1.5520    -0.0680    -4.6520 o          1 LUM      -0.535000
      5 N3          -0.4970     0.0210    -3.6760 ns         1 LUM      -0.479500
      6 C4          -1.3750     0.0590    -2.6120 c          1 LUM       0.493500
      7 O4          -2.5820     0.1130    -2.8030 o          1 LUM      -0.472000
      8 C4A         -0.7350     0.0280    -1.2400 ca         1 LUM       0.211500
      9 N5          -1.4520     0.0580    -0.0770 nb         1 LUM      -0.538000
     10 C5A         -0.7200     0.0240     1.0730 ca         1 LUM       0.185000
     11 C6          -1.3820     0.0510     2.3130 ca         1 LUM      -0.054000
     12 C9A          0.7170    -0.0400     1.0540 ca         1 LUM       0.295000
     13 C7          -0.6720     0.0180     3.5290 ca         1 LUM      -0.077300
     14 C7M         -1.4430     0.0500     4.8460 c3         1 LUM      -0.049800
     15 C8           0.7400    -0.0450     3.5080 ca         1 LUM      -0.031300
     16 C8M          1.5480    -0.0820     4.8020 c3         1 LUM      -0.056800
     17 C9           1.4140    -0.0730     2.2730 ca         1 LUM      -0.106000
     18 N10          1.4200    -0.0690    -0.1140 nb         1 LUM      -0.695000
     19 HN1          2.3950    -0.1090    -2.3160 hn         1 LUM       0.475000
     20 HN3         -0.9120     0.0410    -4.5960 hn         1 LUM       0.350500
     21 HC6         -2.4680     0.1000     2.3240 ha         1 LUM       0.139000
     22 H7M1        -1.2430    -0.8470     5.4430 hc         1 LUM       0.048033
     23 H7M2        -1.1640     0.9250     5.4460 hc         1 LUM       0.048033
     24 H7M3        -2.5260     0.0990     4.6850 hc         1 LUM       0.048033
     25 H8M1         1.3650     0.8120     5.4090 hc         1 LUM       0.050033
     26 H8M2         1.2870    -0.9600     5.4060 hc         1 LUM       0.050033
     27 H8M3         2.6270    -0.1300     4.6090 hc         1 LUM       0.050033
     28 HC9          2.4990    -0.1210     2.2510 ha         1 LUM       0.136000
@<TRIPOS>BOND
     1     1     2 1   
     2     1     3 1   
     3     1    19 1   
     4     2     4 2   
     5     2     5 1   
     6     3     8 ar  
     7     3    18 ar  
     8     5     6 1   
     9     5    20 1   
    10     6     7 2   
    11     6     8 1   
    12     8     9 ar  
    13     9    10 ar  
    14    10    11 ar  
    15    10    12 ar  
    16    11    13 ar  
    17    11    21 1   
    18    12    17 ar  
    19    12    18 ar  
    20    13    14 1   
    21    13    15 ar  
    22    14    22 1   
    23    14    23 1   
    24    14    24 1   
    25    15    16 1   
    26    15    17 ar  
    27    16    25 1   
    28    16    26 1   
    29    16    27 1   
    30    17    28 1   
@<TRIPOS>SUBSTRUCTURE
     1 LUM         1 TEMP              0 ****  ****    0 ROOT
