@<TRIPOS>MOLECULE
LUN
   58    63     1     0     0
SMALL
abcg2


@<TRIPOS>ATOM
      1 C1          10.4000    -8.0280    14.0700 c5         1 LUN      -0.025700
      2 C2           9.1560    -7.2360    14.3810 ca         1 LUN      -0.122300
      3 C3           9.8080    -9.4160    13.7520 c5         1 LUN       0.106000
      4 C4          11.2950    -7.4960    12.9270 c5         1 LUN       0.175800
      5 C5          11.3650    -8.0780    15.2870 c5         1 LUN      -0.071400
      6 C6           8.0890    -8.0970    14.6500 ca         1 LUN      -0.036000
      7 C7           8.9920    -5.8660    14.4820 ca         1 LUN      -0.069000
      8 N8           8.5020    -9.4360    14.4410 n          1 LUN      -0.209400
      9 N9          12.5920    -7.1690    13.5340 n3         1 LUN      -0.723600
     10 C10         12.7400    -8.1130    14.6440 c5         1 LUN       0.159800
     11 C11          6.8420    -7.6040    15.0240 ca         1 LUN      -0.109000
     12 C12          7.7470    -5.3550    14.8480 ca         1 LUN      -0.131000
     13 C13          7.8350   -10.5330    14.8860 c          1 LUN       0.640300
     14 C14         13.6950    -7.1440    12.5760 c6         1 LUN       0.151500
     15 C15          6.6890    -6.2210    15.1160 ca         1 LUN      -0.090000
     16 C16          8.3310   -11.8770    14.5210 cc         1 LUN      -0.128300
     17 O17          6.8260   -10.4480    15.5960 o          1 LUN      -0.608100
     18 C18         15.0400    -6.9020    13.2650 c6         1 LUN      -0.075400
     19 C19         13.4590    -6.0520    11.5180 c6         1 LUN       0.148800
     20 C20          9.1380   -12.3850    13.5190 cd         1 LUN      -0.194200
     21 N21          7.8460   -12.9260    15.2730 na         1 LUN      -0.190700
     22 C22         16.1700    -6.7700    12.2430 c6         1 LUN      -0.112400
     23 N23         14.5470    -5.9070    10.5510 n7         1 LUN      -0.844400
     24 C24          9.1510   -13.8020    13.6690 ca         1 LUN      -0.094800
     25 C25          8.3290   -14.1080    14.7890 ca         1 LUN      -0.047200
     26 C26         15.8440    -5.7010    11.2020 c6         1 LUN       0.146800
     27 C27          9.7850   -14.8440    12.9700 ca         1 LUN      -0.094000
     28 C28          8.1320   -15.4200    15.2270 ca         1 LUN      -0.099000
     29 C29          9.5690   -16.1200    13.4260 ca         1 LUN       0.132000
     30 C30          8.7630   -16.4330    14.5290 ca         1 LUN      -0.116000
     31 F31         10.1720   -17.1580    12.7760 f          1 LUN      -0.189000
     32 H3           9.6500    -9.5290    12.6770 h1         1 LUN       0.060700
     33 H3A         10.4440   -10.2230    14.1050 h1         1 LUN       0.060700
     34 H4          11.4110    -8.2780    12.1590 h1         1 LUN       0.044200
     35 H4A         10.8560    -6.6260    12.4410 h1         1 LUN       0.044200
     36 H5          11.2600    -7.1660    15.8750 hc         1 LUN       0.063200
     37 H5A         11.1590    -8.9300    15.9340 hc         1 LUN       0.063200
     38 H7           9.8230    -5.2010    14.2800 ha         1 LUN       0.125000
     39 H10         13.5300    -7.8060    15.3270 h1         1 LUN       0.039200
     40 H10A        12.9770    -9.1290    14.2830 h1         1 LUN       0.039200
     41 H11          6.0210    -8.2690    15.2340 ha         1 LUN       0.146000
     42 H12          7.6030    -4.2850    14.9250 ha         1 LUN       0.117000
     43 H14         13.7480    -8.1160    12.0470 h1         1 LUN       0.014700
     44 H15          5.7250    -5.8180    15.3990 ha         1 LUN       0.116000
     45 H18         14.9650    -5.9830    13.8560 hc         1 LUN       0.049200
     46 H18A        15.2650    -7.7130    13.9590 hc         1 LUN       0.049200
     47 H19         12.5400    -6.2480    10.9650 h1         1 LUN       0.059200
     48 H19A        13.3300    -5.0970    12.0400 h1         1 LUN       0.059200
     49 H20          9.6410   -11.8290    12.7500 ha         1 LUN       0.207000
     50 H22         17.1080    -6.5290    12.7500 hc         1 LUN       0.044200
     51 H22A        16.3170    -7.7290    11.7330 hc         1 LUN       0.044200
     52 HN23        14.5960    -6.7470     9.9820 hn         1 LUN       0.400000
     53 H26         15.8210    -4.7180    11.6860 h1         1 LUN       0.054700
     54 H26A        16.6160    -5.6640    10.4300 h1         1 LUN       0.054700
     55 H27         10.4200   -14.6600    12.1140 ha         1 LUN       0.135000
     56 H28          7.5060   -15.6390    16.0820 ha         1 LUN       0.124000
     57 H30          8.6480   -17.4680    14.8210 ha         1 LUN       0.133000
     58 HN21         7.2060   -12.8050    16.0420 hn         1 LUN       0.374000
@<TRIPOS>BOND
     1     1     2 1   
     2     1     3 1   
     3     1     4 1   
     4     1     5 1   
     5     2     6 ar  
     6     2     7 ar  
     7     3     8 1   
     8     3    32 1   
     9     3    33 1   
    10     4     9 1   
    11     4    34 1   
    12     4    35 1   
    13     5    10 1   
    14     5    36 1   
    15     5    37 1   
    16     6     8 1   
    17     6    11 ar  
    18     7    12 ar  
    19     7    38 1   
    20     8    13 1   
    21     9    10 1   
    22     9    14 1   
    23    10    39 1   
    24    10    40 1   
    25    11    15 ar  
    26    11    41 1   
    27    12    15 ar  
    28    12    42 1   
    29    13    16 1   
    30    13    17 2   
    31    14    18 1   
    32    14    19 1   
    33    14    43 1   
    34    15    44 1   
    35    16    20 2   
    36    16    21 1   
    37    18    22 1   
    38    18    45 1   
    39    18    46 1   
    40    19    23 1   
    41    19    47 1   
    42    19    48 1   
    43    20    24 1   
    44    20    49 1   
    45    21    25 1   
    46    21    58 1   
    47    22    26 1   
    48    22    50 1   
    49    22    51 1   
    50    23    26 1   
    51    23    52 1   
    52    24    25 ar  
    53    24    27 ar  
    54    25    28 ar  
    55    26    53 1   
    56    26    54 1   
    57    27    29 ar  
    58    27    55 1   
    59    28    30 ar  
    60    28    56 1   
    61    29    30 ar  
    62    29    31 1   
    63    30    57 1   
@<TRIPOS>SUBSTRUCTURE
     1 LUN         1 TEMP              0 ****  ****    0 ROOT
