@<TRIPOS>MOLECULE
LUN
   58    63     1     0     0
SMALL
No Charge or Current Charge


@<TRIPOS>ATOM
      1 C1          10.5510    -8.1880    14.1970 c5         1 LUN      -0.025700
      2 C2           9.3380    -7.3150    14.4340 ca         1 LUN      -0.122300
      3 C3           9.9520    -9.6500    14.0510 c5         1 LUN       0.106000
      4 C4          11.3660    -7.7850    12.9260 c5         1 LUN       0.175800
      5 C5          11.5450    -8.1010    15.3930 c5         1 LUN      -0.071400
      6 C6           8.2030    -8.0810    14.6070 ca         1 LUN      -0.036000
      7 C7           9.2880    -5.9120    14.4980 ca         1 LUN      -0.069000
      8 N8           8.5510    -9.4660    14.5270 n          1 LUN      -0.209400
      9 N9          12.6420    -7.2740    13.5050 n3         1 LUN      -0.723600
     10 C10         12.8970    -8.1910    14.6480 c5         1 LUN       0.159800
     11 C11          6.9610    -7.4770    14.8820 ca         1 LUN      -0.109000
     12 C12          8.0510    -5.2900    14.7540 ca         1 LUN      -0.131000
     13 C13          7.7350   -10.5550    14.9710 c          1 LUN       0.640300
     14 C14         13.7610    -7.0760    12.5320 c6         1 LUN       0.151500
     15 C15          6.8910    -6.0710    14.9470 ca         1 LUN      -0.090000
     16 C16          8.1040   -11.9870    14.6760 cc         1 LUN      -0.128300
     17 O17          6.7240   -10.3430    15.6340 o          1 LUN      -0.608100
     18 C18         15.0410    -6.5290    13.2310 c6         1 LUN      -0.075400
     19 C19         13.3610    -6.1030    11.3670 c6         1 LUN       0.148800
     20 C20          9.0530   -12.5400    13.8050 cd         1 LUN      -0.194200
     21 N21          7.4640   -13.1310    15.2180 na         1 LUN      -0.190700
     22 C22         16.1640    -6.2320    12.2050 c6         1 LUN      -0.112400
     23 N23         14.4800    -5.8390    10.4150 n7         1 LUN      -0.844400
     24 C24          9.0100   -13.9780    13.8410 ca         1 LUN      -0.094800
     25 C25          8.0210   -14.2970    14.7230 ca         1 LUN      -0.047200
     26 C26         15.6730    -5.2800    11.0910 c6         1 LUN       0.146800
     27 C27          9.7560   -14.9510    13.1650 ca         1 LUN      -0.094000
     28 C28          7.6920   -15.6300    15.0080 ca         1 LUN      -0.099000
     29 C29          9.4490   -16.3010    13.4330 ca         1 LUN       0.132000
     30 C30          8.4250   -16.6430    14.3480 ca         1 LUN      -0.116000
     31 F31         10.1400   -17.2800    12.8080 f          1 LUN      -0.189000
     32 H3           9.9460    -9.9490    12.9960 h1         1 LUN       0.060700
     33 H3A         10.5060   -10.3940    14.6390 h1         1 LUN       0.060700
     34 H4          11.5560    -8.6510    12.2780 h1         1 LUN       0.044200
     35 H4A         10.8450    -7.0260    12.3260 h1         1 LUN       0.044200
     36 H5          11.4650    -7.1430    15.9200 hc         1 LUN       0.063200
     37 H5A         11.4150    -8.8920    16.1400 hc         1 LUN       0.063200
     38 H7          10.1890    -5.3190    14.3580 ha         1 LUN       0.125000
     39 H10         13.7230    -7.8590    15.2910 h1         1 LUN       0.039200
     40 H10A        13.1100    -9.2150    14.3100 h1         1 LUN       0.039200
     41 H11          6.0580    -8.0640    15.0260 ha         1 LUN       0.146000
     42 H12          7.9910    -4.2060    14.8070 ha         1 LUN       0.117000
     43 H14         14.0140    -8.0480    12.0830 h1         1 LUN       0.014700
     44 H15          5.9390    -5.5850    15.1480 ha         1 LUN       0.116000
     45 H18         14.7970    -5.6120    13.7860 hc         1 LUN       0.049200
     46 H18A        15.4190    -7.2510    13.9660 hc         1 LUN       0.049200
     47 H19         12.5150    -6.5270    10.8070 h1         1 LUN       0.059200
     48 H19A        13.0190    -5.1510    11.8000 h1         1 LUN       0.059200
     49 H20          9.7080   -12.0080    13.1280 ha         1 LUN       0.207000
     50 H22         17.0280    -5.7860    12.7170 hc         1 LUN       0.044200
     51 H22A        16.5180    -7.1720    11.7600 hc         1 LUN       0.044200
     52 HN23        14.7470    -6.7310     9.9800 hn         1 LUN       0.400000
     53 H26         15.4260    -4.3000    11.5260 h1         1 LUN       0.054700
     54 H26A        16.4770    -5.1230    10.3560 h1         1 LUN       0.054700
     55 H27         10.5400   -14.6800    12.4630 ha         1 LUN       0.135000
     56 H28          6.9010   -15.8770    15.7120 ha         1 LUN       0.124000
     57 H30          8.2010   -17.6890    14.5420 ha         1 LUN       0.133000
     58 HN21         6.6940   -13.0960    15.8810 hn         1 LUN       0.374000
@<TRIPOS>BOND
     1     1     2 1   
     2     1     3 1   
     3     1     4 1   
     4     1     5 1   
     5     2     6 ar  
     6     2     7 ar  
     7     3     8 1   
     8     3    32 1   
     9     3    33 1   
    10     4     9 1   
    11     4    34 1   
    12     4    35 1   
    13     5    10 1   
    14     5    36 1   
    15     5    37 1   
    16     6     8 1   
    17     6    11 ar  
    18     7    12 ar  
    19     7    38 1   
    20     8    13 1   
    21     9    10 1   
    22     9    14 1   
    23    10    39 1   
    24    10    40 1   
    25    11    15 ar  
    26    11    41 1   
    27    12    15 ar  
    28    12    42 1   
    29    13    16 1   
    30    13    17 2   
    31    14    18 1   
    32    14    19 1   
    33    14    43 1   
    34    15    44 1   
    35    16    20 2   
    36    16    21 1   
    37    18    22 1   
    38    18    45 1   
    39    18    46 1   
    40    19    23 1   
    41    19    47 1   
    42    19    48 1   
    43    20    24 1   
    44    20    49 1   
    45    21    25 1   
    46    21    58 1   
    47    22    26 1   
    48    22    50 1   
    49    22    51 1   
    50    23    26 1   
    51    23    52 1   
    52    24    25 ar  
    53    24    27 ar  
    54    25    28 ar  
    55    26    53 1   
    56    26    54 1   
    57    27    29 ar  
    58    27    55 1   
    59    28    30 ar  
    60    28    56 1   
    61    29    30 ar  
    62    29    31 1   
    63    30    57 1   
@<TRIPOS>SUBSTRUCTURE
     1 LUN         1 TEMP              0 ****  ****    0 ROOT
