@<TRIPOS>MOLECULE
LUP
   70    73     1     0     0
SMALL
No Charge or Current Charge


@<TRIPOS>ATOM
      1 C10         -2.4670     1.1810     0.8190 c6         1 LUP      -0.075400
      2 C13         -0.0970    -1.7940    -0.1960 c3         1 LUP      -0.333400
      3 C20          4.0710    -2.2700    -0.5850 c6         1 LUP       0.117700
      4 C21          3.4700    -2.7290     0.7650 c6         1 LUP      -0.122900
      5 C22          2.7380    -4.0790     0.5990 c6         1 LUP       0.212800
      6 C26          6.3940     0.7000     0.0950 cc         1 LUP       0.223500
      7 C28          7.6560     2.4580     0.4680 cd         1 LUP       0.212300
      8 C02         -9.7470     3.0280     0.4530 c3         1 LUP       0.300000
      9 C05         -8.6250     2.2030    -0.2160 c3         1 LUP      -0.150400
     10 C07         -6.1760     1.4030    -0.1670 c3         1 LUP       0.162800
     11 C09         -3.7450     0.7610     0.0490 c6         1 LUP       0.175500
     12 C11         -1.2140     0.4470     0.2830 c6         1 LUP      -0.073900
     13 C12         -1.3810    -1.0950     0.3470 c6         1 LUP      -0.025700
     14 C18          2.1600    -3.5220    -1.7490 c6         1 LUP       0.212800
     15 C19          2.9510    -2.1900    -1.6490 c6         1 LUP      -0.122900
     16 C27          7.6600     1.1080     0.5630 cc         1 LUP      -0.198000
     17 C31          8.7390     3.4120     0.8270 cx         1 LUP      -0.197000
     18 C34         -2.6670    -1.5230    -0.4170 c6         1 LUP      -0.073900
     19 C35         -3.9220    -0.7810     0.1110 c6         1 LUP      -0.075400
     20 F01         -9.4090     4.3350     0.5350 f          1 LUP      -0.118667
     21 F03        -10.8910     2.9400    -0.2620 f          1 LUP      -0.118667
     22 F04        -10.0040     2.5810     1.7030 f          1 LUP      -0.118667
     23 N08         -4.9160     1.4770     0.5960 n7         1 LUP      -0.863400
     24 N17          1.6690    -3.9910    -0.4280 n3         1 LUP      -0.761500
     25 N30          5.6270     1.7240    -0.2750 nd         1 LUP      -0.369300
     26 O25          6.7250    -1.6770     0.3870 o          1 LUP      -0.583100
     27 O29          6.4530     2.8830    -0.0310 os         1 LUP      -0.061700
     28 S14          0.0620    -3.5750     0.0580 s6         1 LUP       1.204100
     29 C32          8.4220     4.7660     1.4230 cx         1 LUP      -0.104400
     30 C33          8.9710     4.6700     0.0190 cx         1 LUP      -0.104400
     31 H1          -2.3180     2.2660     0.7330 hc         1 LUP       0.049950
     32 H2          -2.5890     0.9670     1.8900 hc         1 LUP       0.049950
     33 H3          -0.0120    -1.6250    -1.2740 h1         1 LUP       0.086700
     34 H4           0.7720    -1.3600     0.3060 h1         1 LUP       0.086700
     35 H5           4.8200    -3.0070    -0.9130 h1         1 LUP       0.084700
     36 H6           4.2690    -2.8410     1.5100 hc         1 LUP       0.056700
     37 H7           2.7820    -1.9710     1.1610 hc         1 LUP       0.056700
     38 H8           3.4800    -4.8310     0.2890 h1         1 LUP       0.074200
     39 H9           2.3550    -4.4210     1.5720 h1         1 LUP       0.074200
     40 H10         -8.9600     1.1620    -0.3010 hc         1 LUP       0.076700
     41 H11         -8.4830     2.5710    -1.2400 hc         1 LUP       0.076700
     42 H12         -6.9240     3.2790     0.6120 hc         1 LUP       0.063200
     43 H13         -7.4020     1.8650     1.5530 hc         1 LUP       0.063200
     44 H14         -6.5250     0.3640    -0.2440 h1         1 LUP       0.029700
     45 H15         -6.0280     1.7850    -1.1860 h1         1 LUP       0.029700
     46 H16         -3.6180     1.0580    -1.0030 h1         1 LUP       0.019700
     47 H17         -1.0210     0.7580    -0.7530 hc         1 LUP       0.045700
     48 H18         -0.3350     0.7520     0.8670 hc         1 LUP       0.045700
     49 H19         -1.4830    -1.3860     1.4040 hc         1 LUP       0.069700
     50 H20          1.3340    -3.4140    -2.4680 h1         1 LUP       0.074200
     51 H21          2.8340    -4.2820    -2.1720 h1         1 LUP       0.074200
     52 H22          2.2770    -1.3560    -1.4240 hc         1 LUP       0.056700
     53 H23          3.3930    -1.9620    -2.6290 hc         1 LUP       0.056700
     54 H24          8.4560     0.4640     0.9180 ha         1 LUP       0.172000
     55 H25          9.6270     2.9110     1.2080 hc         1 LUP       0.101700
     56 H26         -2.5470    -1.3220    -1.4910 hc         1 LUP       0.045700
     57 H27         -2.8310    -2.6030    -0.3180 hc         1 LUP       0.045700
     58 H28         -4.1250    -1.0910     1.1450 hc         1 LUP       0.049950
     59 H29         -4.7910    -1.0900    -0.4840 hc         1 LUP       0.049950
     60 H30         -4.6660     2.4690     0.6740 hn         1 LUP       0.409000
     61 H32          4.2070    -0.1340    -0.7040 hn         1 LUP       0.332500
     62 H33          7.3770     5.0460     1.5400 hc         1 LUP       0.082700
     63 H34          9.0810     5.1460     2.2000 hc         1 LUP       0.082700
     64 H35          9.9980     4.9860    -0.1470 hc         1 LUP       0.082700
     65 H36          8.2930     4.8860    -0.8050 hc         1 LUP       0.082700
     66 N23          4.7260    -0.9650    -0.4420 ns         1 LUP      -0.493900
     67 C24          6.0020    -0.7480     0.0420 c          1 LUP       0.527600
     68 C06         -7.2660     2.2400     0.5310 c3         1 LUP      -0.077400
     69 O15         -0.0170    -3.8300     1.5000 o          1 LUP      -0.530500
     70 O16         -0.8340    -4.3050    -0.8440 o          1 LUP      -0.530500
@<TRIPOS>BOND
     1     1    11 1   
     2     1    12 1   
     3     1    31 1   
     4     1    32 1   
     5     2    13 1   
     6     2    28 1   
     7     2    33 1   
     8     2    34 1   
     9     3     4 1   
    10     3    15 1   
    11     3    35 1   
    12     3    66 1   
    13     4     5 1   
    14     4    36 1   
    15     4    37 1   
    16     5    24 1   
    17     5    38 1   
    18     5    39 1   
    19     6    16 1   
    20     6    25 2   
    21     6    67 1   
    22     7    16 2   
    23     7    17 1   
    24     7    27 1   
    25     8     9 1   
    26     8    20 1   
    27     8    21 1   
    28     8    22 1   
    29     9    40 1   
    30     9    41 1   
    31     9    68 1   
    32    10    23 1   
    33    10    44 1   
    34    10    45 1   
    35    10    68 1   
    36    11    19 1   
    37    11    23 1   
    38    11    46 1   
    39    12    13 1   
    40    12    47 1   
    41    12    48 1   
    42    13    18 1   
    43    13    49 1   
    44    14    15 1   
    45    14    24 1   
    46    14    50 1   
    47    14    51 1   
    48    15    52 1   
    49    15    53 1   
    50    16    54 1   
    51    17    29 1   
    52    17    30 1   
    53    17    55 1   
    54    18    19 1   
    55    18    56 1   
    56    18    57 1   
    57    19    58 1   
    58    19    59 1   
    59    23    60 1   
    60    24    28 1   
    61    25    27 1   
    62    26    67 2   
    63    28    69 2   
    64    28    70 2   
    65    29    30 1   
    66    29    62 1   
    67    29    63 1   
    68    30    64 1   
    69    30    65 1   
    70    42    68 1   
    71    43    68 1   
    72    61    66 1   
    73    66    67 1   
@<TRIPOS>SUBSTRUCTURE
     1 LUP         1 TEMP              0 ****  ****    0 ROOT
