@<TRIPOS>MOLECULE
LUP
   70    73     1     0     0
SMALL
bcc


@<TRIPOS>ATOM
      1 C10         -2.8520     0.7910     1.6070 c6         1 LUP      -0.075400
      2 C13         -0.1770    -1.6050     0.2160 c3         1 LUP      -0.222600
      3 C20          4.0820    -2.1350    -0.5150 c6         1 LUP       0.117700
      4 C21          3.4160    -2.4390     0.8270 c6         1 LUP      -0.122900
      5 C22          2.5580    -3.6950     0.7410 c6         1 LUP       0.212800
      6 C26          6.6580     0.5800    -0.0460 cc         1 LUP       0.288800
      7 C28          7.9690     2.2970     0.1910 cd         1 LUP       0.322000
      8 C02         -9.7760     2.7120    -0.1650 c3         1 LUP       0.663900
      9 C05         -8.3900     2.3890    -0.6450 c3         1 LUP      -0.150400
     10 C07         -6.0850     1.5620    -0.1000 c3         1 LUP       0.162800
     11 C09         -3.8840     0.7000     0.4900 c6         1 LUP       0.175500
     12 C11         -1.4930     0.2660     1.1620 c6         1 LUP      -0.073900
     13 C12         -1.5740    -1.1790     0.6610 c6         1 LUP      -0.025700
     14 C18          2.1990    -3.3400    -1.6600 c6         1 LUP       0.212800
     15 C19          3.0460    -2.0750    -1.6310 c6         1 LUP      -0.122900
     16 C27          7.9780     0.9440     0.2990 cc         1 LUP      -0.346600
     17 C31          9.0000     3.3080     0.4040 cx         1 LUP      -0.197000
     18 C34         -2.6270    -1.2880    -0.4420 c6         1 LUP      -0.073900
     19 C35         -3.9770    -0.7470     0.0130 c6         1 LUP      -0.075400
     20 F01         -9.7870     3.6930     0.7530 f          1 LUP      -0.239967
     21 F03        -10.5740     3.1170    -1.1670 f          1 LUP      -0.239967
     22 F04        -10.3840     1.6570     0.4030 f          1 LUP      -0.239967
     23 N08         -5.1750     1.1790     0.9620 n7         1 LUP      -0.808200
     24 N17          1.6050    -3.6420    -0.3630 n3         1 LUP      -0.761500
     25 N30          5.9330     1.6230    -0.3330 nd         1 LUP      -0.369300
     26 O25          6.8120    -1.7500     0.2100 o          1 LUP      -0.583100
     27 O29          6.7470     2.6940    -0.1870 os         1 LUP      -0.106100
     28 S14          0.0090    -3.3640    -0.0900 s6         1 LUP       1.234900
     29 C32          8.6510     4.6690     0.9510 cx         1 LUP      -0.104400
     30 C33          9.0760     4.5350    -0.4690 cx         1 LUP      -0.104400
     31 H1          -2.7520     1.8290     1.9400 hc         1 LUP       0.049950
     32 H2          -3.2070     0.2150     2.4690 hc         1 LUP       0.049950
     33 H3           0.1240    -1.0880    -0.6990 h1         1 LUP       0.086700
     34 H4           0.5530    -1.3670     0.9930 h1         1 LUP       0.086700
     35 H5           4.7920    -2.9360    -0.7380 h1         1 LUP       0.084700
     36 H6           4.1780    -2.5850     1.5950 hc         1 LUP       0.056700
     37 H7           2.8120    -1.5830     1.1380 hc         1 LUP       0.056700
     38 H8           3.1990    -4.5660     0.5740 h1         1 LUP       0.074200
     39 H9           2.0350    -3.8690     1.6790 h1         1 LUP       0.074200
     40 H10         -8.4760     1.6160    -1.4140 hc         1 LUP       0.076700
     41 H11         -7.9900     3.2790    -1.1360 hc         1 LUP       0.076700
     42 H12         -7.3320     2.7210     1.2080 hc         1 LUP       0.063200
     43 H13         -7.8600     1.0600     0.9810 hc         1 LUP       0.063200
     44 H14         -6.2030     0.7220    -0.7900 h1         1 LUP       0.029700
     45 H15         -5.6960     2.3990    -0.7020 h1         1 LUP       0.029700
     46 H16         -3.5160     1.3130    -0.3540 h1         1 LUP       0.019700
     47 H17         -1.1000     0.9010     0.3590 hc         1 LUP       0.045700
     48 H18         -0.7820     0.3350     1.9890 hc         1 LUP       0.045700
     49 H19         -1.8780    -1.8080     1.5060 hc         1 LUP       0.069700
     50 H20          1.4230    -3.2580    -2.4170 h1         1 LUP       0.074200
     51 H21          2.8190    -4.1960    -1.9420 h1         1 LUP       0.074200
     52 H22          2.4010    -1.2010    -1.4940 hc         1 LUP       0.056700
     53 H23          3.5420    -1.9600    -2.5970 hc         1 LUP       0.056700
     54 H24          8.7970     0.3050     0.5810 ha         1 LUP       0.190000
     55 H25          9.9420     2.8810     0.7250 hc         1 LUP       0.101700
     56 H26         -2.2800    -0.7270    -1.3180 hc         1 LUP       0.045700
     57 H27         -2.7460    -2.3220    -0.7650 hc         1 LUP       0.045700
     58 H28         -4.3630    -1.3570     0.8380 hc         1 LUP       0.049950
     59 H29         -4.6930    -0.8410    -0.8070 hc         1 LUP       0.049950
     60 H30         -5.0220     1.9890     1.5510 hn         1 LUP       0.353800
     61 H32          4.3170    -0.0360    -0.6440 hn         1 LUP       0.332500
     62 H33          7.6100     4.8800     1.1570 hc         1 LUP       0.082700
     63 H34          9.3450     5.0970     1.6620 hc         1 LUP       0.082700
     64 H35         10.0680     4.8680    -0.7450 hc         1 LUP       0.082700
     65 H36          8.3320     4.6540    -1.2450 hc         1 LUP       0.082700
     66 N23          4.8230    -0.8920    -0.4690 ns         1 LUP      -0.560900
     67 C24          6.1020    -0.8030    -0.0870 c          1 LUP       0.594600
     68 C06         -7.4500     1.9290     0.4630 c3         1 LUP      -0.077400
     69 O15         -0.3460    -4.0610     1.1390 o          1 LUP      -0.601300
     70 O16         -0.6920    -3.7110    -1.3200 o          1 LUP      -0.601300
@<TRIPOS>BOND
     1     1    11 1   
     2     1    12 1   
     3     1    31 1   
     4     1    32 1   
     5     2    13 1   
     6     2    28 1   
     7     2    33 1   
     8     2    34 1   
     9     3     4 1   
    10     3    15 1   
    11     3    35 1   
    12     3    66 1   
    13     4     5 1   
    14     4    36 1   
    15     4    37 1   
    16     5    24 1   
    17     5    38 1   
    18     5    39 1   
    19     6    16 1   
    20     6    25 2   
    21     6    67 1   
    22     7    16 2   
    23     7    17 1   
    24     7    27 1   
    25     8     9 1   
    26     8    20 1   
    27     8    21 1   
    28     8    22 1   
    29     9    40 1   
    30     9    41 1   
    31     9    68 1   
    32    10    23 1   
    33    10    44 1   
    34    10    45 1   
    35    10    68 1   
    36    11    19 1   
    37    11    23 1   
    38    11    46 1   
    39    12    13 1   
    40    12    47 1   
    41    12    48 1   
    42    13    18 1   
    43    13    49 1   
    44    14    15 1   
    45    14    24 1   
    46    14    50 1   
    47    14    51 1   
    48    15    52 1   
    49    15    53 1   
    50    16    54 1   
    51    17    29 1   
    52    17    30 1   
    53    17    55 1   
    54    18    19 1   
    55    18    56 1   
    56    18    57 1   
    57    19    58 1   
    58    19    59 1   
    59    23    60 1   
    60    24    28 1   
    61    25    27 1   
    62    26    67 2   
    63    28    69 2   
    64    28    70 2   
    65    29    30 1   
    66    29    62 1   
    67    29    63 1   
    68    30    64 1   
    69    30    65 1   
    70    42    68 1   
    71    43    68 1   
    72    61    66 1   
    73    66    67 1   
@<TRIPOS>SUBSTRUCTURE
     1 LUP         1 TEMP              0 ****  ****    0 ROOT
