@<TRIPOS>MOLECULE
LUQ
   20    19     1     0     0
SMALL
abcg2


@<TRIPOS>ATOM
      1 C01          0.1410    -0.3200     0.0120 c3         1 LUQ       0.194800
      2 C02         -0.9680     0.7120    -0.0960 c3         1 LUQ      -0.357400
      3 C08          2.5180    -0.6220     0.0040 c3         1 LUQ       0.082800
      4 C09          3.8610     0.0780     0.1210 c          1 LUQ       0.600100
      5 N07          1.4360     0.3290    -0.0710 n7         1 LUQ      -0.850400
      6 N11          4.9140    -0.6720    -0.2310 nt         1 LUQ      -0.619000
      7 O04         -2.6750    -0.5930     1.4060 o          1 LUQ      -0.698200
      8 O05         -3.5500     1.1100    -0.1440 o          1 LUQ      -0.698200
      9 O06         -2.6950    -1.0320    -1.0170 o          1 LUQ      -0.698200
     10 O10          3.9600     1.2230     0.5360 o          1 LUQ      -0.606100
     11 S03         -2.6110    -0.0130     0.0490 s6         1 LUQ       1.322600
     12 H1           0.0210    -0.9010     0.9380 h1         1 LUQ       0.038200
     13 H2           0.0540    -1.0280    -0.8160 h1         1 LUQ       0.038200
     14 H3          -0.8810     1.4610     0.6950 h1         1 LUQ       0.072700
     15 H4          -0.9180     1.2300    -1.0560 h1         1 LUQ       0.072700
     16 H5           2.5070    -1.2570    -0.8860 h1         1 LUQ       0.036700
     17 H6           2.4390    -1.3090     0.8640 h1         1 LUQ       0.036700
     18 H7           1.5290     0.9910     0.6900 hn         1 LUQ       0.423000
     19 H9           4.8110    -1.6230    -0.5410 hn         1 LUQ       0.304500
     20 H10          5.8520    -0.3300    -0.0950 hn         1 LUQ       0.304500
@<TRIPOS>BOND
     1     1     2 1   
     2     1     5 1   
     3     1    12 1   
     4     1    13 1   
     5     2    11 1   
     6     2    14 1   
     7     2    15 1   
     8     3     4 1   
     9     3     5 1   
    10     3    16 1   
    11     3    17 1   
    12     4     6 1   
    13     4    10 2   
    14     5    18 1   
    15     6    19 1   
    16     6    20 1   
    17     7    11 1   
    18     8    11 1   
    19     9    11 1   
@<TRIPOS>SUBSTRUCTURE
     1 LUQ         1 TEMP              0 ****  ****    0 ROOT
