@<TRIPOS>MOLECULE
LUQ
   20    19     1     0     0
SMALL
No Charge or Current Charge


@<TRIPOS>ATOM
      1 C01          0.0650    -0.3800     0.0600 c3         1 LUQ       0.194800
      2 C02         -1.0000     0.7030    -0.0940 c3         1 LUQ      -0.357400
      3 C08          2.5560    -0.6490     0.1300 c3         1 LUQ       0.082800
      4 C09          3.9510     0.0600     0.1610 c          1 LUQ       0.600100
      5 N07          1.3810     0.2680    -0.0190 n7         1 LUQ      -0.850400
      6 N11          4.9910    -0.6390    -0.3520 nt         1 LUQ      -0.619000
      7 O04         -2.7360    -0.6120     1.2960 o          1 LUQ      -0.698200
      8 O05         -3.5260     1.1960    -0.1930 o          1 LUQ      -0.698200
      9 O06         -2.7030    -0.9260    -1.1570 o          1 LUQ      -0.698200
     10 O10          4.1380     1.1800     0.6160 o          1 LUQ      -0.606100
     11 S03         -2.6630     0.0170    -0.0300 s6         1 LUQ       1.322600
     12 H1          -0.0570    -0.8890     1.0270 h1         1 LUQ       0.038200
     13 H2          -0.0420    -1.1290    -0.7380 h1         1 LUQ       0.038200
     14 H3          -0.9340     1.4370     0.7150 h1         1 LUQ       0.072700
     15 H4          -0.9070     1.2060    -1.0620 h1         1 LUQ       0.072700
     16 H5           2.5680    -1.3720    -0.6960 h1         1 LUQ       0.036700
     17 H6           2.4770    -1.2280     1.0600 h1         1 LUQ       0.036700
     18 H7           1.4320     0.9770     0.7250 hn         1 LUQ       0.423000
     19 H9           4.8430    -1.5630    -0.7300 hn         1 LUQ       0.304500
     20 H10          5.9110    -0.2230    -0.3560 hn         1 LUQ       0.304500
@<TRIPOS>BOND
     1     1     2 1   
     2     1     5 1   
     3     1    12 1   
     4     1    13 1   
     5     2    11 1   
     6     2    14 1   
     7     2    15 1   
     8     3     4 1   
     9     3     5 1   
    10     3    16 1   
    11     3    17 1   
    12     4     6 1   
    13     4    10 2   
    14     5    18 1   
    15     6    19 1   
    16     6    20 1   
    17     7    11 1   
    18     8    11 1   
    19     9    11 1   
@<TRIPOS>SUBSTRUCTURE
     1 LUQ         1 TEMP              0 ****  ****    0 ROOT
