@<TRIPOS>MOLECULE
LUR
   32    33     1     0     0
SMALL
No Charge or Current Charge


@<TRIPOS>ATOM
      1 OAB         -0.3730    -2.8280     0.3110 o          1 LUR      -0.722000
      2 CAN          0.8170    -2.9680     0.5490 c          1 LUR       0.725000
      3 OAC          1.5320    -3.7830    -0.0140 o          1 LUR      -0.722000
      4 CAL          1.4760    -1.9340     1.4690 c3         1 LUR      -0.179100
      5 CAR          1.9260    -0.7090     0.6570 ca         1 LUR      -0.044300
      6 CAK          3.3070    -0.4620     0.5000 ca         1 LUR      -0.098000
      7 CAO          3.7650     0.6600    -0.2140 ca         1 LUR      -0.122300
      8 CAA          5.2570     0.9080    -0.3760 c3         1 LUR      -0.028800
      9 CAI          2.8340     1.5450    -0.7830 ca         1 LUR      -0.107000
     10 CAJ          1.4580     1.3100    -0.6340 ca         1 LUR      -0.165000
     11 CAS          0.9920     0.1960     0.0870 ca         1 LUR       0.311000
     12 NAM         -0.3850    -0.0280     0.1900 nu         1 LUR      -0.985000
     13 CAT         -1.5090     0.8300     0.1940 ca         1 LUR       0.316000
     14 CAQ         -2.7360     0.3910    -0.3680 ca         1 LUR       0.063000
     15 ClE         -2.8860    -1.2050    -1.1100 cl         1 LUR      -0.177000
     16 CAH         -3.8670     1.2280    -0.3700 ca         1 LUR      -0.097000
     17 CAF         -3.8020     2.5110     0.1950 ca         1 LUR      -0.143000
     18 CAG         -2.6030     2.9590     0.7700 ca         1 LUR      -0.136000
     19 CAP         -1.4670     2.1300     0.7740 ca         1 LUR       0.116000
     20 FAD         -0.3460     2.5930     1.3810 f          1 LUR      -0.173000
     21 H2           0.7510    -1.5740     2.2090 hc         1 LUR       0.039200
     22 H3           2.3660    -2.3740     1.9350 hc         1 LUR       0.039200
     23 H4           4.0320    -1.1460     0.9360 ha         1 LUR       0.106000
     24 H5           5.6480     0.3760    -1.2510 hc         1 LUR       0.026033
     25 H6           5.4750     1.9750    -0.5080 hc         1 LUR       0.026033
     26 H7           5.8160     0.5650     0.5030 hc         1 LUR       0.026033
     27 H8           3.1750     2.4110    -1.3460 ha         1 LUR       0.088000
     28 H9           0.7520     1.9950    -1.0940 ha         1 LUR       0.102000
     29 H10         -0.6200    -1.0370     0.2080 hn         1 LUR       0.580000
     30 H14         -4.7980     0.8790    -0.8130 ha         1 LUR       0.116000
     31 H15         -4.6800     3.1540     0.1920 ha         1 LUR       0.104000
     32 H16         -2.5520     3.9470     1.2200 ha         1 LUR       0.117000
@<TRIPOS>BOND
     1     1     2 1   
     2     2     3 1   
     3     2     4 1   
     4     4     5 1   
     5     4    21 1   
     6     4    22 1   
     7     5     6 ar  
     8     5    11 ar  
     9     6     7 ar  
    10     6    23 1   
    11     7     8 1   
    12     7     9 ar  
    13     8    24 1   
    14     8    25 1   
    15     8    26 1   
    16     9    10 ar  
    17     9    27 1   
    18    10    11 ar  
    19    10    28 1   
    20    11    12 1   
    21    12    13 1   
    22    12    29 1   
    23    13    14 ar  
    24    13    19 ar  
    25    14    15 1   
    26    14    16 ar  
    27    16    17 ar  
    28    16    30 1   
    29    17    18 ar  
    30    17    31 1   
    31    18    19 ar  
    32    18    32 1   
    33    19    20 1   
@<TRIPOS>SUBSTRUCTURE
     1 LUR         1 TEMP              0 ****  ****    0 ROOT
