@<TRIPOS>MOLECULE
LUR
   32    33     1     0     0
SMALL
abcg2


@<TRIPOS>ATOM
      1 OAB         -0.0540    -2.8330    -0.0440 o          1 LUR      -0.722000
      2 CAN          0.9500    -3.0800     0.6690 c          1 LUR       0.725000
      3 OAC          1.5110    -4.1800     0.7820 o          1 LUR      -0.722000
      4 CAL          1.5110    -1.8990     1.4900 c3         1 LUR      -0.179100
      5 CAR          1.8810    -0.6960     0.6650 ca         1 LUR      -0.044300
      6 CAK          3.2200    -0.4070     0.4310 ca         1 LUR      -0.098000
      7 CAO          3.6400     0.7160    -0.2790 ca         1 LUR      -0.122300
      8 CAA          5.0990     0.9760    -0.5220 c3         1 LUR      -0.028800
      9 CAI          2.6560     1.5690    -0.7660 ca         1 LUR      -0.107000
     10 CAJ          1.3110     1.2980    -0.5670 ca         1 LUR      -0.165000
     11 CAS          0.9050     0.1710     0.1430 ca         1 LUR       0.311000
     12 NAM         -0.4390    -0.1540     0.3350 nu         1 LUR      -0.985000
     13 CAT         -1.4720     0.7480     0.2340 ca         1 LUR       0.316000
     14 CAQ         -2.6310     0.5030    -0.5110 ca         1 LUR       0.063000
     15 CLE         -2.7410    -0.9720    -1.4130 cl         1 LUR      -0.177000
     16 CAH         -3.6940     1.3940    -0.5540 ca         1 LUR      -0.097000
     17 CAF         -3.6140     2.5890     0.1410 ca         1 LUR      -0.143000
     18 CAG         -2.4830     2.8770     0.8940 ca         1 LUR      -0.136000
     19 CAP         -1.4600     1.9570     0.9410 ca         1 LUR       0.116000
     20 FAD         -0.3920     2.2170     1.7090 f          1 LUR      -0.173000
     21 H2           0.7480    -1.6100     2.2220 hc         1 LUR       0.039200
     22 H3           2.3850    -2.2250     2.0530 hc         1 LUR       0.039200
     23 H4           3.9680    -1.0790     0.8400 ha         1 LUR       0.106000
     24 H5           5.4750     0.3820    -1.3590 hc         1 LUR       0.026033
     25 H6           5.2840     2.0230    -0.7610 hc         1 LUR       0.026033
     26 H7           5.7040     0.7190     0.3480 hc         1 LUR       0.026033
     27 H8           2.9390     2.4570    -1.3190 ha         1 LUR       0.088000
     28 H9           0.5720     1.9670    -0.9920 ha         1 LUR       0.102000
     29 H10         -0.6170    -1.1540     0.1660 hn         1 LUR       0.580000
     30 H14         -4.5700     1.1580    -1.1420 ha         1 LUR       0.116000
     31 H15         -4.4330     3.2940     0.1020 ha         1 LUR       0.104000
     32 H16         -2.4050     3.7940     1.4630 ha         1 LUR       0.117000
@<TRIPOS>BOND
     1     1     2 1   
     2     2     3 1   
     3     2     4 1   
     4     4     5 1   
     5     4    21 1   
     6     4    22 1   
     7     5     6 ar  
     8     5    11 ar  
     9     6     7 ar  
    10     6    23 1   
    11     7     8 1   
    12     7     9 ar  
    13     8    24 1   
    14     8    25 1   
    15     8    26 1   
    16     9    10 ar  
    17     9    27 1   
    18    10    11 ar  
    19    10    28 1   
    20    11    12 1   
    21    12    13 1   
    22    12    29 1   
    23    13    14 ar  
    24    13    19 ar  
    25    14    15 1   
    26    14    16 ar  
    27    16    17 ar  
    28    16    30 1   
    29    17    18 ar  
    30    17    31 1   
    31    18    19 ar  
    32    18    32 1   
    33    19    20 1   
@<TRIPOS>SUBSTRUCTURE
     1 LUR         1 TEMP              0 ****  ****    0 ROOT
