@<TRIPOS>MOLECULE
LUS
   37    38     1     0     0
SMALL
bcc


@<TRIPOS>ATOM
      1 C4         -15.2480   -15.1490   -18.1620 c6         1 LUS      -0.087900
      2 C5         -14.1080   -15.5930   -19.0750 c6         1 LUS       0.195500
      3 C6         -13.2460   -14.3850   -19.4530 c6         1 LUS      -0.087900
      4 C7         -12.7100   -13.6730   -18.2140 c6         1 LUS      -0.069900
      5 C8         -15.2910   -15.6800   -21.2450 c6         1 LUS       0.145300
      6 C10        -14.0020   -17.7610   -22.1310 c6         1 LUS       0.130400
      7 N          -14.5870   -16.3860   -20.1970 n3         1 LUS      -0.736600
      8 O          -15.3980   -17.9300   -22.1980 os         1 LUS      -0.394600
      9 C1         -13.3120   -12.5510   -16.0120 c3         1 LUS      -0.071400
     10 C11        -13.5770   -17.2760   -20.7460 c6         1 LUS       0.145300
     11 C2         -13.8330   -13.2330   -17.2750 c6         1 LUS      -0.062700
     12 C3         -14.7120   -14.4330   -16.9250 c6         1 LUS      -0.069900
     13 C9         -16.0900   -16.7020   -22.0530 c6         1 LUS       0.130400
     14 H1         -15.9230   -14.4730   -18.6990 hc         1 LUS       0.043200
     15 H2         -15.8380   -16.0200   -17.8690 hc         1 LUS       0.043200
     16 H3         -13.4790   -16.2740   -18.4860 h1         1 LUS       0.054700
     17 H4         -12.4130   -14.6920   -20.0920 hc         1 LUS       0.043200
     18 H5         -13.8450   -13.6780   -20.0390 hc         1 LUS       0.043200
     19 H6         -12.0350   -14.3460   -17.6700 hc         1 LUS       0.039700
     20 H7         -12.1080   -12.8140   -18.5210 hc         1 LUS       0.039700
     21 H8         -14.6250   -15.1000   -21.9030 h1         1 LUS       0.036950
     22 H9         -15.9910   -14.9640   -20.8120 h1         1 LUS       0.036950
     23 H10        -13.5430   -18.7270   -22.3490 h1         1 LUS       0.043700
     24 H11        -13.6530   -17.0640   -22.9040 h1         1 LUS       0.043700
     25 H13        -12.2740   -10.7710   -15.3300 hc         1 LUS       0.031033
     26 H14        -11.6100   -11.4450   -16.8090 hc         1 LUS       0.031033
     27 H15        -13.1300   -10.5580   -16.8550 hc         1 LUS       0.031033
     28 H16        -14.1620   -12.3300   -15.3580 hc         1 LUS       0.037700
     29 H17        -12.6820   -13.2560   -15.4580 hc         1 LUS       0.037700
     30 H18        -13.4480   -18.1250   -20.0650 h1         1 LUS       0.036950
     31 H19        -12.5890   -16.8020   -20.8470 h1         1 LUS       0.036950
     32 H20        -14.4570   -12.5060   -17.8160 hc         1 LUS       0.044700
     33 H21        -15.5450   -14.1120   -16.2930 hc         1 LUS       0.039700
     34 H22        -14.1250   -15.1400   -16.3260 hc         1 LUS       0.039700
     35 H23        -16.3420   -16.2780   -23.0330 h1         1 LUS       0.043700
     36 H24        -17.0270   -16.9290   -21.5380 h1         1 LUS       0.043700
     37 C          -12.5380   -11.2630   -16.2670 c3         1 LUS      -0.088100
@<TRIPOS>BOND
     1     1     2 1   
     2     1    12 1   
     3     1    14 1   
     4     1    15 1   
     5     2     3 1   
     6     2     7 1   
     7     2    16 1   
     8     3     4 1   
     9     3    17 1   
    10     3    18 1   
    11     4    11 1   
    12     4    19 1   
    13     4    20 1   
    14     5     7 1   
    15     5    13 1   
    16     5    21 1   
    17     5    22 1   
    18     6     8 1   
    19     6    10 1   
    20     6    23 1   
    21     6    24 1   
    22     7    10 1   
    23     8    13 1   
    24     9    11 1   
    25     9    28 1   
    26     9    29 1   
    27     9    37 1   
    28    10    30 1   
    29    10    31 1   
    30    11    12 1   
    31    11    32 1   
    32    12    33 1   
    33    12    34 1   
    34    13    35 1   
    35    13    36 1   
    36    25    37 1   
    37    26    37 1   
    38    27    37 1   
@<TRIPOS>SUBSTRUCTURE
     1 LUS         1 TEMP              0 ****  ****    0 ROOT
