@<TRIPOS>MOLECULE
LUS
   37    38     1     0     0
SMALL
No Charge or Current Charge


@<TRIPOS>ATOM
      1 C4         -15.2420   -15.1730   -18.0850 c6         1 LUS      -0.087900
      2 C5         -14.0970   -15.6300   -19.0310 c6         1 LUS       0.195500
      3 C6         -13.2350   -14.3990   -19.4450 c6         1 LUS      -0.087900
      4 C7         -12.6750   -13.6610   -18.2020 c6         1 LUS      -0.069900
      5 C8         -15.5350   -15.7200   -21.1230 c6         1 LUS       0.145300
      6 C10        -14.0900   -18.0590   -22.0920 c6         1 LUS       0.153600
      7 N          -14.6110   -16.4420   -20.1820 n3         1 LUS      -0.736600
      8 O          -15.5330   -17.9740   -22.1920 os         1 LUS      -0.441000
      9 C1         -13.2670   -12.5010   -15.9580 c3         1 LUS      -0.071400
     10 C11        -13.5340   -17.1720   -20.9270 c6         1 LUS       0.145300
     11 C2         -13.8100   -13.2230   -17.2300 c6         1 LUS      -0.062700
     12 C3         -14.6810   -14.4480   -16.8360 c6         1 LUS      -0.069900
     13 C9         -16.0050   -16.6100   -22.3230 c6         1 LUS       0.153600
     14 H1         -15.9300   -14.4960   -18.6080 hc         1 LUS       0.043200
     15 H2         -15.8340   -16.0430   -17.7690 hc         1 LUS       0.043200
     16 H3         -13.4460   -16.2840   -18.4300 h1         1 LUS       0.054700
     17 H4         -12.3940   -14.7090   -20.0780 hc         1 LUS       0.043200
     18 H5         -13.8310   -13.6940   -20.0380 hc         1 LUS       0.043200
     19 H6         -11.9650   -14.3150   -17.6750 hc         1 LUS       0.039700
     20 H7         -12.1020   -12.7870   -18.5390 hc         1 LUS       0.039700
     21 H8         -15.0460   -14.8280   -21.5410 h1         1 LUS       0.036950
     22 H9         -16.4310   -15.3700   -20.5910 h1         1 LUS       0.036950
     23 H10        -13.8090   -19.1090   -21.9250 h1         1 LUS       0.043700
     24 H11        -13.6440   -17.7400   -23.0450 h1         1 LUS       0.043700
     25 H13        -12.2580   -10.6960   -15.2670 hc         1 LUS       0.031033
     26 H14        -11.5770   -11.3580   -16.7620 hc         1 LUS       0.031033
     27 H15        -13.1290   -10.4870   -16.8000 hc         1 LUS       0.031033
     28 H16        -14.1050   -12.2760   -15.2870 hc         1 LUS       0.037700
     29 H17        -12.6050   -13.1760   -15.4000 hc         1 LUS       0.037700
     30 H18        -12.9650   -17.8130   -20.2380 h1         1 LUS       0.036950
     31 H19        -12.8160   -16.4630   -21.3630 h1         1 LUS       0.036950
     32 H20        -14.4520   -12.4970   -17.7490 hc         1 LUS       0.044700
     33 H21        -15.5150   -14.1260   -16.1980 hc         1 LUS       0.039700
     34 H22        -14.0870   -15.1540   -16.2380 hc         1 LUS       0.039700
     35 H23        -15.6260   -16.1900   -23.2660 h1         1 LUS       0.043700
     36 H24        -17.1020   -16.6160   -22.3750 h1         1 LUS       0.043700
     37 C          -12.5110   -11.1800   -16.2170 c3         1 LUS      -0.088100
@<TRIPOS>BOND
     1     1     2 1   
     2     1    12 1   
     3     1    14 1   
     4     1    15 1   
     5     2     3 1   
     6     2     7 1   
     7     2    16 1   
     8     3     4 1   
     9     3    17 1   
    10     3    18 1   
    11     4    11 1   
    12     4    19 1   
    13     4    20 1   
    14     5     7 1   
    15     5    13 1   
    16     5    21 1   
    17     5    22 1   
    18     6     8 1   
    19     6    10 1   
    20     6    23 1   
    21     6    24 1   
    22     7    10 1   
    23     8    13 1   
    24     9    11 1   
    25     9    28 1   
    26     9    29 1   
    27     9    37 1   
    28    10    30 1   
    29    10    31 1   
    30    11    12 1   
    31    11    32 1   
    32    12    33 1   
    33    12    34 1   
    34    13    35 1   
    35    13    36 1   
    36    25    37 1   
    37    26    37 1   
    38    27    37 1   
@<TRIPOS>SUBSTRUCTURE
     1 LUS         1 TEMP              0 ****  ****    0 ROOT
