@<TRIPOS>MOLECULE
LUU
   21    22     1     0     0
SMALL
bcc


@<TRIPOS>ATOM
      1 C7         -15.3860   -17.4760    -6.6000 cc         1 LUU      -0.186200
      2 C2         -18.1080   -19.5270    -4.9080 ca         1 LUU      -0.124300
      3 C3         -17.7120   -19.2070    -3.5960 ca         1 LUU      -0.106000
      4 C4         -16.6330   -18.3850    -3.3310 ca         1 LUU      -0.151000
      5 C5         -15.9370   -17.8680    -4.4200 ca         1 LUU      -0.047200
      6 C6         -14.5230   -16.8100    -5.7790 cd         1 LUU      -0.116100
      7 C1         -19.2960   -20.4260    -5.1420 c3         1 LUU       0.202100
      8 C8         -16.3080   -18.1660    -5.7510 ca         1 LUU      -0.103800
      9 C9         -17.4070   -18.9990    -5.9800 ca         1 LUU      -0.047000
     10 N1         -20.3400   -19.7410    -5.8950 n8         1 LUU      -0.884800
     11 N2         -14.8500   -17.0430    -4.4740 na         1 LUU      -0.176400
     12 H9         -15.3670   -17.4750    -7.6780 ha         1 LUU       0.155000
     13 H5         -18.2730   -19.6190    -2.7660 ha         1 LUU       0.122000
     14 H6         -16.3460   -18.1510    -2.3130 ha         1 LUU       0.129000
     15 H8         -13.6860   -16.1770    -6.0280 h4         1 LUU       0.160000
     16 H4         -19.6370   -20.8180    -4.1740 h1         1 LUU       0.030200
     17 H3         -18.9840   -21.2950    -5.7270 h1         1 LUU       0.030200
     18 H10        -17.7100   -19.2350    -6.9940 ha         1 LUU       0.143000
     19 H11        -21.0980   -20.3880    -6.0760 hn         1 LUU       0.337300
     20 H2         -20.7340   -19.0040    -5.3240 hn         1 LUU       0.337300
     21 H7         -14.3610   -16.6650    -3.6800 hn         1 LUU       0.296700
@<TRIPOS>BOND
     1     1     6 2   
     2     1     8 1   
     3     1    12 1   
     4     2     3 ar  
     5     2     7 1   
     6     2     9 ar  
     7     3     4 ar  
     8     3    13 1   
     9     4     5 ar  
    10     4    14 1   
    11     5     8 ar  
    12     5    11 1   
    13     6    11 1   
    14     6    15 1   
    15     7    10 1   
    16     7    16 1   
    17     7    17 1   
    18     8     9 ar  
    19     9    18 1   
    20    10    19 1   
    21    10    20 1   
    22    11    21 1   
@<TRIPOS>SUBSTRUCTURE
     1 LUU         1 TEMP              0 ****  ****    0 ROOT
