@<TRIPOS>MOLECULE
LUU
   21    22     1     0     0
SMALL
No Charge or Current Charge


@<TRIPOS>ATOM
      1 C7         -15.2840   -17.5480    -6.5870 cc         1 LUU      -0.236200
      2 C2         -18.1100   -19.5280    -4.9970 ca         1 LUU      -0.124300
      3 C3         -17.8080   -19.1540    -3.6610 ca         1 LUU      -0.088000
      4 C4         -16.7220   -18.2960    -3.3820 ca         1 LUU      -0.133000
      5 C5         -15.9550   -17.8280    -4.4570 ca         1 LUU      -0.047200
      6 C6         -14.4390   -16.8150    -5.7620 cd         1 LUU      -0.166100
      7 C1         -19.2760   -20.4610    -5.2880 c3         1 LUU       0.202100
      8 C8         -16.2450   -18.1880    -5.7420 ca         1 LUU      -0.103800
      9 C9         -17.3150   -19.0370    -6.0580 ca         1 LUU      -0.029000
     10 N1         -20.4920   -19.7060    -5.6290 n8         1 LUU      -0.995200
     11 N2         -14.8550   -16.9860    -4.4170 na         1 LUU      -0.226700
     12 H9         -15.2140   -17.6120    -7.6720 ha         1 LUU       0.205000
     13 H5         -18.4160   -19.5300    -2.8410 ha         1 LUU       0.104000
     14 H6         -16.4880   -18.0080    -2.3600 ha         1 LUU       0.111000
     15 H8         -13.5860   -16.1940    -6.0260 h4         1 LUU       0.210000
     16 H4         -19.4820   -21.0860    -4.4070 h1         1 LUU       0.030200
     17 H3         -19.0230   -21.1250    -6.1260 h1         1 LUU       0.030200
     18 H10        -17.5250   -19.3070    -7.0900 ha         1 LUU       0.125000
     19 H11        -21.2750   -20.3630    -5.7230 hn         1 LUU       0.392500
     20 H2         -20.7530   -19.1280    -4.8220 hn         1 LUU       0.392500
     21 H7         -14.4320   -16.5750    -3.5890 hn         1 LUU       0.347000
@<TRIPOS>BOND
     1     1     6 2   
     2     1     8 1   
     3     1    12 1   
     4     2     3 ar  
     5     2     7 1   
     6     2     9 ar  
     7     3     4 ar  
     8     3    13 1   
     9     4     5 ar  
    10     4    14 1   
    11     5     8 ar  
    12     5    11 1   
    13     6    11 1   
    14     6    15 1   
    15     7    10 1   
    16     7    16 1   
    17     7    17 1   
    18     8     9 ar  
    19     9    18 1   
    20    10    19 1   
    21    10    20 1   
    22    11    21 1   
@<TRIPOS>SUBSTRUCTURE
     1 LUU         1 TEMP              0 ****  ****    0 ROOT
