@<TRIPOS>MOLECULE
LUV
   73    77     1     0     0
SMALL
bcc


@<TRIPOS>ATOM
      1 O2          10.0490    -2.3620     1.9860 o          1 LUV      -0.651500
      2 C30          9.7820    -1.3900     1.2960 c          1 LUV       0.821500
      3 N3          10.5300    -0.8900     0.2810 ns         1 LUV      -0.590900
      4 C            9.9380     0.2450    -0.3770 c5         1 LUV       0.103700
      5 N2           8.6790    -0.6000     1.4100 ns         1 LUV      -0.575900
      6 C29          8.6810     0.5190     0.5010 c5         1 LUV       0.094700
      7 C2           7.4450     0.5560    -0.4090 c5         1 LUV       0.026400
      8 S            7.7960    -0.6790    -1.7040 ss         1 LUV      -0.312200
      9 C1           9.4890    -0.0440    -1.8130 c5         1 LUV      -0.018300
     10 C3           6.1320     0.3040     0.3080 c3         1 LUV      -0.059400
     11 C4           4.9070     0.4330    -0.5890 c3         1 LUV      -0.078400
     12 C5           3.6100     0.2350     0.1860 c3         1 LUV      -0.065400
     13 C6           2.3850     0.3640    -0.7080 c3         1 LUV      -0.157400
     14 C7           1.0800     0.1730     0.0360 c          1 LUV       0.664100
     15 O            0.9490     0.4590     1.2190 o          1 LUV      -0.607100
     16 N            0.0710    -0.3210    -0.7040 ns         1 LUV      -0.572900
     17 C8          -1.2690    -0.5000    -0.2010 c3         1 LUV       0.078000
     18 C9          -2.0710     0.8020    -0.1990 c3         1 LUV       0.075000
     19 N1          -3.4190     0.5770     0.2660 ns         1 LUV      -0.565900
     20 C10         -4.5010     0.5550    -0.5270 c          1 LUV       0.685700
     21 O1          -4.4940     0.8470    -1.7130 o          1 LUV      -0.590100
     22 C11         -5.7640     0.1290     0.1650 ca         1 LUV      -0.128600
     23 C16         -5.9270    -1.2140     0.5220 cp         1 LUV      -0.005500
     24 C17         -4.8720    -2.2180     0.2420 cp         1 LUV      -0.049000
     25 C22         -4.2610    -2.9090     1.2860 ca         1 LUV      -0.110750
     26 C21         -3.2760    -3.8520     1.0260 ca         1 LUV      -0.130250
     27 C20         -2.8990    -4.1240    -0.2820 ca         1 LUV      -0.122500
     28 C19         -3.5140    -3.4500    -1.3290 ca         1 LUV      -0.130250
     29 C18         -4.4930    -2.5020    -1.0690 ca         1 LUV      -0.110750
     30 C15         -7.1150    -1.6160     1.1270 ca         1 LUV      -0.121000
     31 C14         -8.1330    -0.7040     1.3530 ca         1 LUV      -0.115000
     32 C13         -7.9710     0.6210     0.9800 ca         1 LUV      -0.121000
     33 C12         -6.7880     1.0550     0.3870 cp         1 LUV      -0.005500
     34 C23         -6.6410     2.4840     0.0270 cp         1 LUV      -0.049000
     35 C28         -7.5820     3.0940    -0.8010 ca         1 LUV      -0.110750
     36 C27         -7.4710     4.4390    -1.1270 ca         1 LUV      -0.130250
     37 C26         -6.4200     5.1940    -0.6230 ca         1 LUV      -0.122500
     38 C25         -5.4850     4.5970     0.2120 ca         1 LUV      -0.130250
     39 C24         -5.5950     3.2520     0.5360 ca         1 LUV      -0.110750
     40 H3          11.3080    -1.3980    -0.1050 hn         1 LUV       0.342500
     41 H2           8.1660    -0.5740     2.2750 hn         1 LUV       0.336500
     42 H           10.6240     1.0950    -0.3780 h1         1 LUV       0.070700
     43 H29          8.7590     1.4660     1.0410 h1         1 LUV       0.062700
     44 H11C         9.4990     0.8720    -2.4050 h1         1 LUV       0.077700
     45 H12C        10.1330    -0.7710    -2.3070 h1         1 LUV       0.077700
     46 HA           7.4150     1.5400    -0.8870 h1         1 LUV       0.068700
     47 H31C         6.1490    -0.6880     0.7680 hc         1 LUV       0.054700
     48 H32C         6.0530     1.0270     1.1270 hc         1 LUV       0.054700
     49 H41C         4.9050     1.4180    -1.0660 hc         1 LUV       0.044700
     50 H42C         4.9590    -0.3000    -1.4010 hc         1 LUV       0.044700
     51 H51C         3.6180    -0.7510     0.6590 hc         1 LUV       0.055700
     52 H52C         3.5540     0.9660     0.9960 hc         1 LUV       0.055700
     53 H61C         2.3620     1.3620    -1.1610 hc         1 LUV       0.056200
     54 H62C         2.4480    -0.3410    -1.5410 hc         1 LUV       0.056200
     55 HB           0.2340    -0.5100    -1.6790 hn         1 LUV       0.314500
     56 H81C        -1.7720    -1.2380    -0.8260 h1         1 LUV       0.060700
     57 H82C        -1.2290    -0.9130     0.8080 h1         1 LUV       0.060700
     58 H91C        -1.5890     1.5390     0.4450 h1         1 LUV       0.066700
     59 H92C        -2.1140     1.2210    -1.2020 h1         1 LUV       0.066700
     60 H1          -3.5380     0.3200     1.2330 hn         1 LUV       0.318500
     61 H15         -7.2480    -2.6550     1.4010 ha         1 LUV       0.139000
     62 H22         -4.5470    -2.6960     2.3090 ha         1 LUV       0.136750
     63 H18         -4.9710    -1.9860    -1.8920 ha         1 LUV       0.136750
     64 H21         -2.8020    -4.3740     1.8470 ha         1 LUV       0.132500
     65 H20         -2.1320    -4.8610    -0.4840 ha         1 LUV       0.131500
     66 H19         -3.2330    -3.6640    -2.3530 ha         1 LUV       0.132500
     67 H14         -9.0550    -1.0260     1.8180 ha         1 LUV       0.136000
     68 H13         -8.7640     1.3350     1.1650 ha         1 LUV       0.139000
     69 H28         -8.3990     2.5100    -1.2050 ha         1 LUV       0.136750
     70 H24         -4.8700     2.8060     1.2050 ha         1 LUV       0.136750
     71 H27         -8.2060     4.8950    -1.7780 ha         1 LUV       0.132500
     72 H26         -6.3330     6.2420    -0.8770 ha         1 LUV       0.131500
     73 H25         -4.6710     5.1810     0.6210 ha         1 LUV       0.132500
@<TRIPOS>BOND
     1     1     2 2   
     2     2     3 1   
     3     2     5 1   
     4     3     4 1   
     5     3    40 1   
     6     4     6 1   
     7     4     9 1   
     8     4    42 1   
     9     5     6 1   
    10     5    41 1   
    11     6     7 1   
    12     6    43 1   
    13     7     8 1   
    14     7    10 1   
    15     7    46 1   
    16     8     9 1   
    17     9    44 1   
    18     9    45 1   
    19    10    11 1   
    20    10    47 1   
    21    10    48 1   
    22    11    12 1   
    23    11    49 1   
    24    11    50 1   
    25    12    13 1   
    26    12    51 1   
    27    12    52 1   
    28    13    14 1   
    29    13    53 1   
    30    13    54 1   
    31    14    15 2   
    32    14    16 1   
    33    16    17 1   
    34    16    55 1   
    35    17    18 1   
    36    17    56 1   
    37    17    57 1   
    38    18    19 1   
    39    18    58 1   
    40    18    59 1   
    41    19    20 1   
    42    19    60 1   
    43    20    21 2   
    44    20    22 1   
    45    22    23 ar  
    46    22    33 ar  
    47    23    24 1   
    48    23    30 ar  
    49    24    25 ar  
    50    24    29 ar  
    51    25    26 ar  
    52    25    62 1   
    53    26    27 ar  
    54    26    64 1   
    55    27    28 ar  
    56    27    65 1   
    57    28    29 ar  
    58    28    66 1   
    59    29    63 1   
    60    30    31 ar  
    61    30    61 1   
    62    31    32 ar  
    63    31    67 1   
    64    32    33 ar  
    65    32    68 1   
    66    33    34 1   
    67    34    35 ar  
    68    34    39 ar  
    69    35    36 ar  
    70    35    69 1   
    71    36    37 ar  
    72    36    71 1   
    73    37    38 ar  
    74    37    72 1   
    75    38    39 ar  
    76    38    73 1   
    77    39    70 1   
@<TRIPOS>SUBSTRUCTURE
     1 LUV         1 TEMP              0 ****  ****    0 ROOT
