@<TRIPOS>MOLECULE
LUV
   73    77     1     0     0
SMALL
No Charge or Current Charge


@<TRIPOS>ATOM
      1 O2           8.9670    -3.6130    -1.7300 o          1 LUV      -0.576000
      2 C30          9.0780    -2.5300    -1.1890 c          1 LUV       0.612000
      3 N3          10.0310    -1.6120    -1.4670 ns         1 LUV      -0.523900
      4 C            9.8870    -0.3800    -0.6870 c5         1 LUV       0.103700
      5 N2           8.2810    -2.0640    -0.2010 ns         1 LUV      -0.508900
      6 C29          8.6580    -0.7200     0.2550 c5         1 LUV       0.094700
      7 C2           7.4800     0.2540    -0.1160 c5         1 LUV       0.074300
      8 S            7.6080     0.5000    -1.9460 ss         1 LUV      -0.408000
      9 C1           9.4350     0.7010    -1.7260 c5         1 LUV       0.029600
     10 C3           6.0560    -0.1990     0.3030 c3         1 LUV      -0.059400
     11 C4           4.9610     0.8740     0.1010 c3         1 LUV      -0.078400
     12 C5           3.5630     0.4070     0.5640 c3         1 LUV      -0.065400
     13 C6           2.4700     1.4830     0.3610 c3         1 LUV      -0.157400
     14 C7           1.0970     0.9840     0.8260 c          1 LUV       0.597100
     15 O            0.7990     0.8850     2.0080 o          1 LUV      -0.607100
     16 N            0.2120     0.6850    -0.1850 ns         1 LUV      -0.505900
     17 C8          -1.1640     0.2140     0.0170 c3         1 LUV       0.078000
     18 C9          -2.1110     1.3260     0.5180 c3         1 LUV       0.075000
     19 N1          -3.4840     0.8450     0.6950 ns         1 LUV      -0.498900
     20 C10         -4.3750     0.6120    -0.3300 c          1 LUV       0.618700
     21 O1          -4.1090     0.8640    -1.4970 o          1 LUV      -0.590100
     22 C11         -5.6950     0.0320     0.1010 ca         1 LUV      -0.128600
     23 C16         -5.6900    -1.2330     0.7510 cp         1 LUV      -0.005500
     24 C17         -4.4480    -2.0310     0.9840 cp         1 LUV      -0.049000
     25 C22         -4.1000    -2.4570     2.2880 ca         1 LUV      -0.092750
     26 C21         -2.9310    -3.2040     2.5150 ca         1 LUV      -0.112250
     27 C20         -2.0950    -3.5460     1.4400 ca         1 LUV      -0.104500
     28 C19         -2.4310    -3.1450     0.1360 ca         1 LUV      -0.112250
     29 C18         -3.5980    -2.3960    -0.0890 ca         1 LUV      -0.092750
     30 C15         -6.9410    -1.7490     1.1610 ca         1 LUV      -0.103000
     31 C14         -8.1320    -1.0470     0.9110 ca         1 LUV      -0.097000
     32 C13         -8.1010     0.1950     0.2520 ca         1 LUV      -0.103000
     33 C12         -6.8780     0.7750    -0.1610 cp         1 LUV      -0.005500
     34 C23         -6.8830     2.1220    -0.8080 cp         1 LUV      -0.049000
     35 C28         -7.7010     2.3730    -1.9360 ca         1 LUV      -0.092750
     36 C27         -7.7270     3.6400    -2.5440 ca         1 LUV      -0.112250
     37 C26         -6.9400     4.6830    -2.0290 ca         1 LUV      -0.104500
     38 C25         -6.1310     4.4590    -0.9030 ca         1 LUV      -0.112250
     39 C24         -6.1060     3.1910    -0.2960 ca         1 LUV      -0.092750
     40 H3          10.7140    -1.8040    -2.1890 hn         1 LUV       0.342500
     41 H2           7.5160    -2.6340     0.1350 hn         1 LUV       0.336500
     42 H           10.8000    -0.1050    -0.1410 h1         1 LUV       0.070700
     43 H29          8.9150    -0.6940     1.3220 h1         1 LUV       0.062700
     44 H11C         9.6280     1.7080    -1.3340 h1         1 LUV       0.077700
     45 H12C         9.9600     0.6130    -2.6870 h1         1 LUV       0.077700
     46 HA           7.6710     1.2250     0.3620 h1         1 LUV       0.068700
     47 H31C         5.7680    -1.0990    -0.2540 hc         1 LUV       0.054700
     48 H32C         6.0710    -0.4820     1.3640 hc         1 LUV       0.054700
     49 H41C         5.2400     1.7800     0.6540 hc         1 LUV       0.044700
     50 H42C         4.9110     1.1500    -0.9590 hc         1 LUV       0.044700
     51 H51C         3.2840    -0.4990     0.0120 hc         1 LUV       0.055700
     52 H52C         3.6070     0.1330     1.6260 hc         1 LUV       0.055700
     53 H61C         2.7390     2.3670     0.9500 hc         1 LUV       0.056200
     54 H62C         2.4330     1.7440    -0.7030 hc         1 LUV       0.056200
     55 HB           0.5480     0.8030    -1.1340 hn         1 LUV       0.314500
     56 H81C        -1.5390    -0.1830    -0.9350 h1         1 LUV       0.060700
     57 H82C        -1.1540    -0.6090     0.7450 h1         1 LUV       0.060700
     58 H91C        -1.7490     1.7120     1.4800 h1         1 LUV       0.066700
     59 H92C        -2.1120     2.1570    -0.2000 h1         1 LUV       0.066700
     60 H1          -3.7960     0.5930     1.6260 hn         1 LUV       0.318500
     61 H15         -6.9860    -2.7140     1.6610 ha         1 LUV       0.121000
     62 H22         -4.7390    -2.1960     3.1280 ha         1 LUV       0.118750
     63 H18         -3.8520    -2.0970    -1.1040 ha         1 LUV       0.118750
     64 H21         -2.6740    -3.5180     3.5250 ha         1 LUV       0.114500
     65 H20         -1.1900    -4.1240     1.6150 ha         1 LUV       0.113500
     66 H19         -1.7880    -3.4140    -0.6990 ha         1 LUV       0.114500
     67 H14         -9.0850    -1.4670     1.2270 ha         1 LUV       0.118000
     68 H13         -9.0330     0.7270     0.0780 ha         1 LUV       0.121000
     69 H28         -8.3140     1.5730    -2.3450 ha         1 LUV       0.118750
     70 H24         -5.4880     3.0370     0.5860 ha         1 LUV       0.118750
     71 H27         -8.3570     3.8130    -3.4140 ha         1 LUV       0.114500
     72 H26         -6.9600     5.6640    -2.4990 ha         1 LUV       0.113500
     73 H25         -5.5270     5.2680    -0.4970 ha         1 LUV       0.114500
@<TRIPOS>BOND
     1     1     2 2   
     2     2     3 1   
     3     2     5 1   
     4     3     4 1   
     5     3    40 1   
     6     4     6 1   
     7     4     9 1   
     8     4    42 1   
     9     5     6 1   
    10     5    41 1   
    11     6     7 1   
    12     6    43 1   
    13     7     8 1   
    14     7    10 1   
    15     7    46 1   
    16     8     9 1   
    17     9    44 1   
    18     9    45 1   
    19    10    11 1   
    20    10    47 1   
    21    10    48 1   
    22    11    12 1   
    23    11    49 1   
    24    11    50 1   
    25    12    13 1   
    26    12    51 1   
    27    12    52 1   
    28    13    14 1   
    29    13    53 1   
    30    13    54 1   
    31    14    15 2   
    32    14    16 1   
    33    16    17 1   
    34    16    55 1   
    35    17    18 1   
    36    17    56 1   
    37    17    57 1   
    38    18    19 1   
    39    18    58 1   
    40    18    59 1   
    41    19    20 1   
    42    19    60 1   
    43    20    21 2   
    44    20    22 1   
    45    22    23 ar  
    46    22    33 ar  
    47    23    24 1   
    48    23    30 ar  
    49    24    25 ar  
    50    24    29 ar  
    51    25    26 ar  
    52    25    62 1   
    53    26    27 ar  
    54    26    64 1   
    55    27    28 ar  
    56    27    65 1   
    57    28    29 ar  
    58    28    66 1   
    59    29    63 1   
    60    30    31 ar  
    61    30    61 1   
    62    31    32 ar  
    63    31    67 1   
    64    32    33 ar  
    65    32    68 1   
    66    33    34 1   
    67    34    35 ar  
    68    34    39 ar  
    69    35    36 ar  
    70    35    69 1   
    71    36    37 ar  
    72    36    71 1   
    73    37    38 ar  
    74    37    72 1   
    75    38    39 ar  
    76    38    73 1   
    77    39    70 1   
@<TRIPOS>SUBSTRUCTURE
     1 LUV         1 TEMP              0 ****  ****    0 ROOT
