@<TRIPOS>MOLECULE
LUW
   46    49     1     0     0
SMALL
abcg2


@<TRIPOS>ATOM
      1 C02          1.2190     1.8300    -0.1480 c          1 LUW       0.646700
      2 C03          2.3640     0.9070    -0.0420 ca         1 LUW      -0.412600
      3 C04          2.7850     0.2360     1.0930 ca         1 LUW       0.205900
      4 C06          4.4120    -0.7920    -0.0570 ca         1 LUW       0.312500
      5 C09          7.0920    -2.7980    -0.8010 cc         1 LUW       0.247900
      6 C10          6.9980    -3.1110     0.5740 cc         1 LUW      -0.224000
      7 C11          5.9470    -2.3750     1.0250 cd         1 LUW      -0.124000
      8 C13          3.1080     0.6210    -1.2080 ca         1 LUW       0.444300
      9 C16         -0.6900     2.9470     0.9180 c3         1 LUW       0.152300
     10 C17         -1.9210     2.0840     0.9470 ca         1 LUW      -0.163300
     11 C18         -2.5450     1.7840     2.1520 ca         1 LUW      -0.058500
     12 C19         -3.6620     0.9650     2.1980 ca         1 LUW      -0.166000
     13 C20         -2.4480     1.5420    -0.2200 ca         1 LUW      -0.058500
     14 C21         -3.5670     0.7290    -0.1970 ca         1 LUW      -0.166000
     15 C22         -4.1770     0.4390     1.0200 ca         1 LUW       0.153100
     16 C24         -5.7990    -0.9640     0.0400 ca         1 LUW       0.090100
     17 C25         -5.3110    -2.2090    -0.3300 ca         1 LUW      -0.115500
     18 C26         -5.8720    -2.8600    -1.4190 ca         1 LUW      -0.101000
     19 C27         -6.9070    -2.2700    -2.1330 ca         1 LUW      -0.107000
     20 C28         -7.3830    -1.0230    -1.7530 ca         1 LUW      -0.101000
     21 C29         -6.8280    -0.3620    -0.6650 ca         1 LUW      -0.115500
     22 N05          3.8020    -0.6080     1.1010 nb         1 LUW      -0.259000
     23 N07          5.4740    -1.6780    -0.0490 na         1 LUW       0.094300
     24 N08          6.1750    -1.9380    -1.1690 nd         1 LUW      -0.455800
     25 N12          4.1140    -0.2270    -1.2110 nb         1 LUW      -0.212000
     26 N15          0.5320     2.1540     0.9340 ns         1 LUW      -0.457900
     27 O01          0.9240     2.2880    -1.2750 o          1 LUW      -0.651100
     28 O14          2.8240     1.1890    -2.3520 oh         1 LUW      -0.651300
     29 O23         -5.2850    -0.3340     1.1480 os         1 LUW      -0.253200
     30 H041         2.2930     0.3590     2.0510 h4         1 LUW       0.017100
     31 H091         7.8000    -3.1750    -1.5220 h4         1 LUW       0.044100
     32 H101         7.6160    -3.7840     1.1430 ha         1 LUW       0.150000
     33 H111         5.5030    -2.2870     2.0000 h4         1 LUW       0.174000
     34 H162        -0.6730     3.5890     0.0420 h1         1 LUW       0.070200
     35 H161        -0.6580     3.6030     1.7870 h1         1 LUW       0.070200
     36 H181        -2.1600     2.1900     3.0800 ha         1 LUW       0.119500
     37 H191        -4.1410     0.7460     3.1430 ha         1 LUW       0.132000
     38 H201        -1.9890     1.7620    -1.1760 ha         1 LUW       0.119500
     39 H211        -3.9560     0.3360    -1.1270 ha         1 LUW       0.132000
     40 H251        -4.5090    -2.6690     0.2330 ha         1 LUW       0.128500
     41 H261        -5.5010    -3.8340    -1.7060 ha         1 LUW       0.118500
     42 H271        -7.3440    -2.7840    -2.9780 ha         1 LUW       0.118000
     43 H281        -8.1900    -0.5590    -2.3040 ha         1 LUW       0.118500
     44 H291        -7.1980     0.6100    -0.3650 ha         1 LUW       0.128500
     45 H151         0.7840     1.7500     1.8200 hn         1 LUW       0.319500
     46 H141         1.9970     1.7550    -2.1410 ho         1 LUW       0.546000
@<TRIPOS>BOND
     1     1     2 1   
     2     1    26 1   
     3     1    27 2   
     4     2     3 ar  
     5     2     8 ar  
     6     3    22 ar  
     7     3    30 1   
     8     4    22 ar  
     9     4    23 1   
    10     4    25 ar  
    11     5     6 1   
    12     5    24 2   
    13     5    31 1   
    14     6     7 2   
    15     6    32 1   
    16     7    23 1   
    17     7    33 1   
    18     8    25 ar  
    19     8    28 1   
    20     9    10 1   
    21     9    26 1   
    22     9    34 1   
    23     9    35 1   
    24    10    11 ar  
    25    10    13 ar  
    26    11    12 ar  
    27    11    36 1   
    28    12    15 ar  
    29    12    37 1   
    30    13    14 ar  
    31    13    38 1   
    32    14    15 ar  
    33    14    39 1   
    34    15    29 1   
    35    16    17 ar  
    36    16    21 ar  
    37    16    29 1   
    38    17    18 ar  
    39    17    40 1   
    40    18    19 ar  
    41    18    41 1   
    42    19    20 ar  
    43    19    42 1   
    44    20    21 ar  
    45    20    43 1   
    46    21    44 1   
    47    23    24 1   
    48    26    45 1   
    49    28    46 1   
@<TRIPOS>SUBSTRUCTURE
     1 LUW         1 TEMP              0 ****  ****    0 ROOT
