@<TRIPOS>MOLECULE
LUW
   46    49     1     0     0
SMALL
No Charge or Current Charge


@<TRIPOS>ATOM
      1 C02          1.2150     1.9550    -0.2410 c          1 LUW       0.646700
      2 C03          2.3360     0.9720    -0.1850 ca         1 LUW      -0.412600
      3 C04          2.7050     0.3190     0.9990 ca         1 LUW       0.205900
      4 C06          4.3960    -0.8360    -0.1100 ca         1 LUW       0.312500
      5 C09          7.2750    -2.7530    -0.2990 cc         1 LUW       0.247900
      6 C10          6.3830    -3.6590     0.3090 cc         1 LUW      -0.224000
      7 C11          5.1870    -3.0210     0.4550 cd         1 LUW      -0.124000
      8 C13          3.0830     0.6430    -1.3190 ca         1 LUW       0.444300
      9 C16         -0.5950     3.1050     1.0640 c3         1 LUW       0.152300
     10 C17         -1.9030     2.3300     1.0220 ca         1 LUW      -0.163300
     11 C18         -2.5250     1.9170     2.2160 ca         1 LUW      -0.058500
     12 C19         -3.7310     1.1960     2.1710 ca         1 LUW      -0.166000
     13 C20         -2.4980     2.0170    -0.2160 ca         1 LUW      -0.058500
     14 C21         -3.7030     1.2950    -0.2590 ca         1 LUW      -0.166000
     15 C22         -4.3150     0.8750     0.9370 ca         1 LUW       0.153100
     16 C24         -5.7860    -0.7960    -0.0110 ca         1 LUW       0.090100
     17 C25         -4.7910    -1.6890    -0.4600 ca         1 LUW      -0.115500
     18 C26         -5.1130    -2.6820    -1.4030 ca         1 LUW      -0.101000
     19 C27         -6.4270    -2.7900    -1.8900 ca         1 LUW      -0.107000
     20 C28         -7.4230    -1.9090    -1.4320 ca         1 LUW      -0.101000
     21 C29         -7.1020    -0.9150    -0.4890 ca         1 LUW      -0.115500
     22 N05          3.7160    -0.5660     1.0340 nb         1 LUW      -0.259000
     23 N07          5.4550    -1.7550    -0.0760 na         1 LUW       0.094300
     24 N08          6.7440    -1.5730    -0.5590 nd         1 LUW      -0.455800
     25 N12          4.0910    -0.2390    -1.2850 nb         1 LUW      -0.212000
     26 N15          0.5500     2.2050     0.9320 ns         1 LUW      -0.457900
     27 O01          0.9150     2.5050    -1.2920 o          1 LUW      -0.651100
     28 O14          2.8080     1.2170    -2.5140 oh         1 LUW      -0.651300
     29 O23         -5.5020     0.1760     0.9220 os         1 LUW      -0.253200
     30 H041         2.1970     0.4940     1.9460 h4         1 LUW       0.017100
     31 H091         8.3090    -2.9300    -0.5630 h4         1 LUW       0.044100
     32 H101         6.6270    -4.6770     0.5960 ha         1 LUW       0.150000
     33 H111         4.2310    -3.3340     0.8620 h4         1 LUW       0.174000
     34 H162        -0.5770     3.8550     0.2630 h1         1 LUW       0.070200
     35 H161        -0.5110     3.6420     2.0180 h1         1 LUW       0.070200
     36 H181        -2.0760     2.1540     3.1790 ha         1 LUW       0.119500
     37 H191        -4.2100     0.8790     3.0940 ha         1 LUW       0.132000
     38 H201        -2.0260     2.3340    -1.1450 ha         1 LUW       0.119500
     39 H211        -4.1600     1.0680    -1.2190 ha         1 LUW       0.132000
     40 H251        -3.7750    -1.6170    -0.0800 ha         1 LUW       0.128500
     41 H261        -4.3450    -3.3690    -1.7530 ha         1 LUW       0.118500
     42 H271        -6.6750    -3.5590    -2.6180 ha         1 LUW       0.118000
     43 H281        -8.4410    -1.9960    -1.8050 ha         1 LUW       0.118500
     44 H291        -7.8710    -0.2350    -0.1330 ha         1 LUW       0.128500
     45 H151         0.8600     1.7010     1.7510 hn         1 LUW       0.319500
     46 H141         2.0420     1.8200    -2.3120 ho         1 LUW       0.546000
@<TRIPOS>BOND
     1     1     2 1   
     2     1    26 1   
     3     1    27 2   
     4     2     3 ar  
     5     2     8 ar  
     6     3    22 ar  
     7     3    30 1   
     8     4    22 ar  
     9     4    23 1   
    10     4    25 ar  
    11     5     6 1   
    12     5    24 2   
    13     5    31 1   
    14     6     7 2   
    15     6    32 1   
    16     7    23 1   
    17     7    33 1   
    18     8    25 ar  
    19     8    28 1   
    20     9    10 1   
    21     9    26 1   
    22     9    34 1   
    23     9    35 1   
    24    10    11 ar  
    25    10    13 ar  
    26    11    12 ar  
    27    11    36 1   
    28    12    15 ar  
    29    12    37 1   
    30    13    14 ar  
    31    13    38 1   
    32    14    15 ar  
    33    14    39 1   
    34    15    29 1   
    35    16    17 ar  
    36    16    21 ar  
    37    16    29 1   
    38    17    18 ar  
    39    17    40 1   
    40    18    19 ar  
    41    18    41 1   
    42    19    20 ar  
    43    19    42 1   
    44    20    21 ar  
    45    20    43 1   
    46    21    44 1   
    47    23    24 1   
    48    26    45 1   
    49    28    46 1   
@<TRIPOS>SUBSTRUCTURE
     1 LUW         1 TEMP              0 ****  ****    0 ROOT
