@<TRIPOS>MOLECULE
LUX
  114   115     1     0     0
SMALL
abcg2


@<TRIPOS>ATOM
      1 C1          -5.0820    12.4410    -3.1210 c6         1 LUX       0.009200
      2 C2          -5.5760    13.7790    -2.5550 c6         1 LUX      -0.105400
      3 C3          -4.5440    14.5750    -1.7780 c6         1 LUX       0.178300
      4 C4          -3.3360    14.8180    -2.6580 c6         1 LUX      -0.038200
      5 C5          -2.8740    13.6190    -3.4450 c2         1 LUX      -0.090400
      6 C6          -3.6730    12.5680    -3.6970 ce         1 LUX      -0.074200
      7 C7          -3.2560    11.4250    -4.5310 ce         1 LUX      -0.173000
      8 C8          -2.7470    11.4980    -5.7590 c2         1 LUX      -0.215200
      9 C9          -2.3920    10.3230    -6.6210 c3         1 LUX      -0.026500
     10 C10         -0.9040    10.3470    -6.9880 c3         1 LUX      -0.070400
     11 C11          0.0230    10.1260    -5.7980 c3         1 LUX      -0.078400
     12 C12          1.4940    10.2960    -6.1570 c3         1 LUX      -0.069400
     13 C13          2.4640    10.2600    -4.9690 c3         1 LUX      -0.054700
     14 C14          2.3290     8.9980    -4.1150 c3         1 LUX      -0.072400
     15 C15          2.4640     7.6910    -4.8840 c3         1 LUX      -0.077400
     16 C16         -6.0680    12.0300    -4.2230 c3         1 LUX      -0.083100
     17 C17         -5.0950    11.3470    -2.0390 c3         1 LUX      -0.083100
     18 C18         -1.4600    13.7480    -3.9340 c3         1 LUX      -0.055900
     19 C19         -3.2650    10.3220    -7.8750 c3         1 LUX      -0.085100
     20 C20          2.3170    11.5040    -4.0960 c3         1 LUX      -0.089100
     21 O3          -4.1000    13.9250    -0.6010 oh         1 LUX      -0.656000
     22 C21         -2.0900     6.7750   -10.6470 c6         1 LUX      -0.035000
     23 C22         -1.7460     5.6620   -11.6450 c6         1 LUX      -0.099400
     24 C23         -0.2640     5.5980   -11.9960 c6         1 LUX       0.206500
     25 C24          0.6190     5.9180   -10.8290 c2         1 LUX      -0.268200
     26 C25          0.1940     6.4120    -9.6650 c2         1 LUX      -0.091400
     27 C26         -1.2800     6.5460    -9.3460 c6         1 LUX      -0.017500
     28 C28         -1.0050     4.9950    -7.2730 c3         1 LUX      -0.074400
     29 C29         -1.5750     3.7990    -6.5000 c3         1 LUX      -0.058700
     30 C30         -0.5840     3.3060    -5.4390 c3         1 LUX      -0.071400
     31 C32          0.7860     3.8580    -3.3460 c3         1 LUX      -0.071400
     32 C33          2.1730     3.8750    -4.0000 c3         1 LUX      -0.056700
     33 C34          2.4430     5.1600    -4.7900 c3         1 LUX      -0.070400
     34 C35          2.3520     6.4590    -3.9950 c3         1 LUX      -0.075400
     35 C37         -3.5970     6.7590   -10.3920 c3         1 LUX      -0.086100
     36 C38          1.1670     6.9700    -8.6700 c3         1 LUX      -0.060900
     37 C39         -2.9490     4.0860    -5.9010 c3         1 LUX      -0.086100
     38 C40          3.2540     3.6040    -2.9570 c3         1 LUX      -0.088100
     39 O23          0.0820     4.3700   -12.6170 oh         1 LUX      -0.654000
     40 H2C1        -6.4680    13.6070    -1.9430 hc         1 LUX       0.044200
     41 H2C2        -5.9040    14.4140    -3.3860 hc         1 LUX       0.044200
     42 H3          -4.9870    15.5470    -1.5180 h1         1 LUX       0.028700
     43 H4C1        -2.5120    15.2010    -2.0470 hc         1 LUX       0.054700
     44 H4C2        -3.5650    15.6280    -3.3610 hc         1 LUX       0.054700
     45 H7          -3.4510    10.4310    -4.1290 ha         1 LUX       0.170000
     46 H8          -2.5870    12.4740    -6.2130 ha         1 LUX       0.169000
     47 H9          -2.5960     9.4040    -6.0600 hc         1 LUX       0.047700
     48 H101        -0.6690    11.3050    -7.4640 hc         1 LUX       0.037700
     49 H102        -0.7100     9.5780    -7.7450 hc         1 LUX       0.037700
     50 H111        -0.2470    10.8210    -4.9980 hc         1 LUX       0.042700
     51 H112        -0.1550     9.1230    -5.3960 hc         1 LUX       0.042700
     52 H121         1.7750     9.5300    -6.8870 hc         1 LUX       0.035200
     53 H122         1.6240    11.2530    -6.6750 hc         1 LUX       0.035200
     54 H13          3.4770    10.2680    -5.3890 hc         1 LUX       0.042700
     55 H141         3.0880     9.0280    -3.3250 hc         1 LUX       0.038200
     56 H142         1.3630     9.0090    -3.5960 hc         1 LUX       0.038200
     57 H151         3.4190     7.6760    -5.4230 hc         1 LUX       0.035700
     58 H152         1.6850     7.6350    -5.6520 hc         1 LUX       0.035700
     59 H161        -6.0610    12.7450    -5.0490 hc         1 LUX       0.035367
     60 H162        -5.8360    11.0470    -4.6360 hc         1 LUX       0.035367
     61 H163        -7.0840    11.9900    -3.8230 hc         1 LUX       0.035367
     62 H171        -4.3390    11.5220    -1.2770 hc         1 LUX       0.035367
     63 H172        -6.0710    11.3100    -1.5490 hc         1 LUX       0.035367
     64 H173        -4.9170    10.3590    -2.4680 hc         1 LUX       0.035367
     65 H181        -1.3880    14.4520    -4.7670 hc         1 LUX       0.041367
     66 H182        -1.0360    12.8040    -4.2690 hc         1 LUX       0.041367
     67 H18         -0.8210    14.1420    -3.1390 hc         1 LUX       0.041367
     68 H191        -4.3250    10.2930    -7.6180 hc         1 LUX       0.034367
     69 H192        -3.0520     9.4560    -8.5040 hc         1 LUX       0.034367
     70 H193        -3.0940    11.2150    -8.4800 hc         1 LUX       0.034367
     71 H201         1.3420    11.5360    -3.6040 hc         1 LUX       0.033033
     72 H202         3.0760    11.5260    -3.3110 hc         1 LUX       0.033033
     73 H203         2.4180    12.4190    -4.6830 hc         1 LUX       0.033033
     74 HA          -4.8740    13.6690    -0.0900 ho         1 LUX       0.438000
     75 H221        -2.3330     5.7890   -12.5590 hc         1 LUX       0.046200
     76 H222        -2.0500     4.6980   -11.2240 hc         1 LUX       0.046200
     77 H23         -0.0530     6.3520   -12.7640 h1         1 LUX       0.074700
     78 H241         1.6880     5.8440   -11.0120 ha         1 LUX       0.179000
     79 H26         -1.3990     7.4400    -8.7170 hc         1 LUX       0.051700
     80 H281         0.0220     4.7490    -7.5540 hc         1 LUX       0.041700
     81 H282        -0.9460     5.8700    -6.6150 hc         1 LUX       0.041700
     82 H29         -1.6920     2.9810    -7.2220 hc         1 LUX       0.041700
     83 H301        -0.9220     2.3370    -5.0550 hc         1 LUX       0.037700
     84 H302         0.3740     3.1110    -5.9330 hc         1 LUX       0.037700
     85 H321         0.6040     2.8560    -2.9410 hc         1 LUX       0.037200
     86 H322         0.7900     4.5290    -2.4810 hc         1 LUX       0.037200
     87 H33          2.2160     3.0530    -4.7220 hc         1 LUX       0.042700
     88 H341         1.7390     5.2100    -5.6280 hc         1 LUX       0.036700
     89 H342         3.4360     5.0920    -5.2480 hc         1 LUX       0.036700
     90 H351         3.1310     6.4900    -3.2260 hc         1 LUX       0.039200
     91 H352         1.3980     6.5030    -3.4580 hc         1 LUX       0.039200
     92 H361        -0.6610     8.2630   -11.4080 hc         1 LUX       0.034867
     93 H362        -2.2460     8.3130   -12.1790 hc         1 LUX       0.034867
     94 H363        -2.0350     8.9470   -10.5520 hc         1 LUX       0.034867
     95 H371        -4.1340     7.0660   -11.2910 hc         1 LUX       0.034867
     96 H372        -3.9630     5.7680   -10.1210 hc         1 LUX       0.034867
     97 H373        -3.8780     7.4490    -9.5920 hc         1 LUX       0.034867
     98 H381         1.1290     8.0630    -8.7020 hc         1 LUX       0.042700
     99 H382         2.1920     6.6670    -8.8800 hc         1 LUX       0.042700
    100 H383         0.9300     6.6930    -7.6440 hc         1 LUX       0.042700
    101 H391        -3.3070     3.2360    -5.3170 hc         1 LUX       0.031367
    102 H392        -3.6960     4.2820    -6.6720 hc         1 LUX       0.031367
    103 H393        -2.9260     4.9550    -5.2410 hc         1 LUX       0.031367
    104 H401         3.0870     2.6460    -2.4600 hc         1 LUX       0.032033
    105 H402         3.2750     4.3720    -2.1820 hc         1 LUX       0.032033
    106 H403         4.2450     3.5690    -3.4140 hc         1 LUX       0.032033
    107 HB          -0.0650     3.6660   -11.9750 ho         1 LUX       0.438000
    108 C31         -0.3740     4.2520    -4.2590 c3         1 LUX      -0.075400
    109 C27         -1.8040     5.3510    -8.5210 c3         1 LUX      -0.066400
    110 C36         -1.7310     8.1460   -11.2310 c3         1 LUX      -0.086100
    111 H27         -2.8290     5.5740    -8.2220 hc         1 LUX       0.039200
    112 H271        -1.8550     4.4620    -9.1580 hc         1 LUX       0.039200
    113 H311        -0.2140     5.2730    -4.6190 hc         1 LUX       0.039700
    114 H312        -1.2880     4.2920    -3.6600 hc         1 LUX       0.039700
@<TRIPOS>BOND
     1     1     2 1   
     2     1     6 1   
     3     1    16 1   
     4     1    17 1   
     5     2     3 1   
     6     2    40 1   
     7     2    41 1   
     8     3     4 1   
     9     3    21 1   
    10     3    42 1   
    11     4     5 1   
    12     4    43 1   
    13     4    44 1   
    14     5     6 2   
    15     5    18 1   
    16     6     7 1   
    17     7     8 2   
    18     7    45 1   
    19     8     9 1   
    20     8    46 1   
    21     9    10 1   
    22     9    19 1   
    23     9    47 1   
    24    10    11 1   
    25    10    48 1   
    26    10    49 1   
    27    11    12 1   
    28    11    50 1   
    29    11    51 1   
    30    12    13 1   
    31    12    52 1   
    32    12    53 1   
    33    13    14 1   
    34    13    20 1   
    35    13    54 1   
    36    14    15 1   
    37    14    55 1   
    38    14    56 1   
    39    15    34 1   
    40    15    57 1   
    41    15    58 1   
    42    16    59 1   
    43    16    60 1   
    44    16    61 1   
    45    17    62 1   
    46    17    63 1   
    47    17    64 1   
    48    18    65 1   
    49    18    66 1   
    50    18    67 1   
    51    19    68 1   
    52    19    69 1   
    53    19    70 1   
    54    20    71 1   
    55    20    72 1   
    56    20    73 1   
    57    21    74 1   
    58    22    23 1   
    59    22    27 1   
    60    22    35 1   
    61    22   110 1   
    62    23    24 1   
    63    23    75 1   
    64    23    76 1   
    65    24    25 1   
    66    24    39 1   
    67    24    77 1   
    68    25    26 2   
    69    25    78 1   
    70    26    27 1   
    71    26    36 1   
    72    27    79 1   
    73    27   109 1   
    74    28    29 1   
    75    28    80 1   
    76    28    81 1   
    77    28   109 1   
    78    29    30 1   
    79    29    37 1   
    80    29    82 1   
    81    30    83 1   
    82    30    84 1   
    83    30   108 1   
    84    31    32 1   
    85    31    85 1   
    86    31    86 1   
    87    31   108 1   
    88    32    33 1   
    89    32    38 1   
    90    32    87 1   
    91    33    34 1   
    92    33    88 1   
    93    33    89 1   
    94    34    90 1   
    95    34    91 1   
    96    35    95 1   
    97    35    96 1   
    98    35    97 1   
    99    36    98 1   
   100    36    99 1   
   101    36   100 1   
   102    37   101 1   
   103    37   102 1   
   104    37   103 1   
   105    38   104 1   
   106    38   105 1   
   107    38   106 1   
   108    39   107 1   
   109    92   110 1   
   110    93   110 1   
   111    94   110 1   
   112   108   113 1   
   113   108   114 1   
   114   109   111 1   
   115   109   112 1   
@<TRIPOS>SUBSTRUCTURE
     1 LUX         1 TEMP              0 ****  ****    0 ROOT
