@<TRIPOS>MOLECULE
LUX
  114   115     1     0     0
SMALL
No Charge or Current Charge


@<TRIPOS>ATOM
      1 C1          -4.2190    10.3270    -3.1970 c6         1 LUX       0.009200
      2 C2          -5.1000    11.1620    -2.2120 c6         1 LUX      -0.105400
      3 C3          -4.3130    12.1510    -1.3210 c6         1 LUX       0.178300
      4 C4          -3.4980    13.1320    -2.1940 c6         1 LUX      -0.038200
      5 C5          -2.7800    12.4930    -3.3860 c2         1 LUX      -0.090400
      6 C6          -3.1300    11.2730    -3.8830 ce         1 LUX      -0.074200
      7 C7          -2.4800    10.6540    -5.0500 ce         1 LUX      -0.173000
      8 C8          -2.4440    11.2050    -6.2820 c2         1 LUX      -0.215200
      9 C9          -1.8740    10.5360    -7.5200 c3         1 LUX      -0.026500
     10 C10         -0.3690    10.8440    -7.7380 c3         1 LUX      -0.070400
     11 C11          0.5190    10.5660    -6.5040 c3         1 LUX      -0.078400
     12 C12          2.0350    10.5130    -6.8230 c3         1 LUX      -0.069400
     13 C13          2.9810    10.5750    -5.5860 c3         1 LUX      -0.054700
     14 C14          2.6060     9.5910    -4.4410 c3         1 LUX      -0.072400
     15 C15          2.5350     8.0970    -4.8370 c3         1 LUX      -0.077400
     16 C16         -5.2040     9.6650    -4.2510 c3         1 LUX      -0.083100
     17 C17         -3.5500     9.1010    -2.4410 c3         1 LUX      -0.083100
     18 C18         -1.7080    13.4010    -3.9760 c3         1 LUX      -0.055900
     19 C19         -2.7070    10.8940    -8.7680 c3         1 LUX      -0.085100
     20 C20          3.1040    12.0180    -5.0380 c3         1 LUX      -0.089100
     21 O3          -3.4700    11.4770    -0.3810 oh         1 LUX      -0.656000
     22 C21         -2.0430     7.0200   -10.9560 c6         1 LUX      -0.035000
     23 C22         -1.9930     5.5950   -11.5940 c6         1 LUX      -0.099400
     24 C23         -0.5510     5.0350   -11.7480 c6         1 LUX       0.206500
     25 C24          0.4270     5.5500   -10.7040 c2         1 LUX      -0.268200
     26 C25          0.1310     6.4580    -9.7550 c2         1 LUX      -0.091400
     27 C26         -1.2990     6.9890    -9.5670 c6         1 LUX      -0.017500
     28 C28         -1.3700     6.0060    -7.0990 c3         1 LUX      -0.074400
     29 C29         -2.5940     4.9160    -5.7070 c3         1 LUX      -0.058700
     30 C30         -1.7770     4.5220    -4.4550 c3         1 LUX      -0.071400
     31 C32         -0.2690     5.3620    -2.4990 c3         1 LUX      -0.071400
     32 C33          1.1180     4.8480    -3.0010 c3         1 LUX      -0.056700
     33 C34          1.7800     5.7430    -4.0900 c3         1 LUX      -0.070400
     34 C35          2.0310     7.2140    -3.6760 c3         1 LUX      -0.075400
     35 C37         -3.5320     7.4730   -10.8160 c3         1 LUX      -0.086100
     36 C38          1.2130     7.1470    -8.9360 c3         1 LUX      -0.060900
     37 C39         -3.8920     5.6850    -5.3840 c3         1 LUX      -0.086100
     38 C40          2.0690     4.5890    -1.8080 c3         1 LUX      -0.088100
     39 O23         -0.5640     3.6130   -11.6810 oh         1 LUX      -0.654000
     40 H2C1        -5.7110    10.4980    -1.5860 hc         1 LUX       0.044200
     41 H2C2        -5.8210    11.7530    -2.7950 hc         1 LUX       0.044200
     42 H3          -5.0460    12.7470    -0.7580 h1         1 LUX       0.028700
     43 H4C1        -2.7810    13.6660    -1.5560 hc         1 LUX       0.054700
     44 H4C2        -4.1790    13.9020    -2.5810 hc         1 LUX       0.054700
     45 H7          -2.1020     9.6410    -4.9080 ha         1 LUX       0.170000
     46 H8          -2.8650    12.1980    -6.4490 ha         1 LUX       0.169000
     47 H9          -1.9620     9.4510    -7.3860 hc         1 LUX       0.047700
     48 H101        -0.2490    11.8950    -8.0290 hc         1 LUX       0.037700
     49 H102        -0.0100    10.2420    -8.5810 hc         1 LUX       0.037700
     50 H111         0.3310    11.3420    -5.7550 hc         1 LUX       0.042700
     51 H112         0.2150     9.6130    -6.0560 hc         1 LUX       0.042700
     52 H121         2.2420     9.5960    -7.3860 hc         1 LUX       0.035200
     53 H122         2.2870    11.3400    -7.4990 hc         1 LUX       0.035200
     54 H13          3.9800    10.2910    -5.9400 hc         1 LUX       0.042700
     55 H141         3.3410     9.6950    -3.6330 hc         1 LUX       0.038200
     56 H142         1.6430     9.8940    -4.0120 hc         1 LUX       0.038200
     57 H151         3.5250     7.7530    -5.1610 hc         1 LUX       0.035700
     58 H152         1.8580     7.9690    -5.6880 hc         1 LUX       0.035700
     59 H161        -5.7080    10.4300    -4.8530 hc         1 LUX       0.035367
     60 H162        -4.6740     9.0040    -4.9470 hc         1 LUX       0.035367
     61 H163        -5.9790     9.0670    -3.7580 hc         1 LUX       0.035367
     62 H171        -2.7510     9.4240    -1.7650 hc         1 LUX       0.035367
     63 H172        -4.2830     8.5360    -1.8530 hc         1 LUX       0.035367
     64 H173        -3.0930     8.4000    -3.1480 hc         1 LUX       0.035367
     65 H181        -2.1620    14.2310    -4.5310 hc         1 LUX       0.041367
     66 H182        -1.0380    12.8730    -4.6600 hc         1 LUX       0.041367
     67 H18         -1.0750    13.8330    -3.1920 hc         1 LUX       0.041367
     68 H191        -3.7510    10.5860    -8.6350 hc         1 LUX       0.034367
     69 H192        -2.3120    10.3880    -9.6560 hc         1 LUX       0.034367
     70 H193        -2.6880    11.9740    -8.9550 hc         1 LUX       0.034367
     71 H201         2.1490    12.3720    -4.6330 hc         1 LUX       0.033033
     72 H202         3.8510    12.0640    -4.2370 hc         1 LUX       0.033033
     73 H203         3.4190    12.7090    -5.8290 hc         1 LUX       0.033033
     74 HA          -4.0470    10.8600     0.1180 ho         1 LUX       0.438000
     75 H221        -2.4740     5.6100   -12.5820 hc         1 LUX       0.046200
     76 H222        -2.5990     4.9020   -10.9970 hc         1 LUX       0.046200
     77 H23         -0.1760     5.3570   -12.7320 h1         1 LUX       0.074700
     78 H241         1.4590     5.2330   -10.8530 ha         1 LUX       0.179000
     79 H26         -1.2450     8.0190    -9.1920 hc         1 LUX       0.051700
     80 H281        -0.4310     5.4550    -7.2210 hc         1 LUX       0.041700
     81 H282        -1.1310     6.9930    -6.6870 hc         1 LUX       0.041700
     82 H29         -2.8860     3.9810    -6.2020 hc         1 LUX       0.041700
     83 H301        -2.3670     3.8380    -3.8320 hc         1 LUX       0.037700
     84 H302        -0.9060     3.9560    -4.8020 hc         1 LUX       0.037700
     85 H321        -0.7080     4.6030    -1.8400 hc         1 LUX       0.037200
     86 H322        -0.1160     6.2480    -1.8710 hc         1 LUX       0.037200
     87 H33          0.9510     3.8690    -3.4660 hc         1 LUX       0.042700
     88 H341         1.1560     5.7260    -4.9910 hc         1 LUX       0.036700
     89 H342         2.7370     5.2940    -4.3860 hc         1 LUX       0.036700
     90 H351         2.7560     7.2500    -2.8540 hc         1 LUX       0.039200
     91 H352         1.0980     7.6490    -3.2970 hc         1 LUX       0.039200
     92 H361        -0.3090     7.8520   -12.0840 hc         1 LUX       0.034867
     93 H362        -1.8590     8.0910   -12.8870 hc         1 LUX       0.034867
     94 H363        -1.4240     9.0790   -11.4890 hc         1 LUX       0.034867
     95 H371        -4.0030     7.6120   -11.7970 hc         1 LUX       0.034867
     96 H372        -4.1390     6.7330   -10.2810 hc         1 LUX       0.034867
     97 H373        -3.6160     8.4230   -10.2740 hc         1 LUX       0.034867
     98 H381         1.2630     8.2130    -9.1850 hc         1 LUX       0.042700
     99 H382         2.2040     6.7230    -9.1380 hc         1 LUX       0.042700
    100 H383         1.0430     7.0680    -7.8590 hc         1 LUX       0.042700
    101 H391        -4.5010     5.1370    -4.6550 hc         1 LUX       0.031367
    102 H392        -4.4880     5.8230    -6.2930 hc         1 LUX       0.031367
    103 H393        -3.6660     6.6770    -4.9760 hc         1 LUX       0.031367
    104 H401         1.6320     3.8570    -1.1190 hc         1 LUX       0.032033
    105 H402         2.2620     5.5110    -1.2470 hc         1 LUX       0.032033
    106 H403         3.0300     4.1910    -2.1570 hc         1 LUX       0.032033
    107 HB          -0.7130     3.3960   -10.7370 ho         1 LUX       0.438000
    108 C31         -1.3090     5.7190    -3.5930 c3         1 LUX      -0.075400
    109 C27         -2.0590     6.1590    -8.4670 c3         1 LUX      -0.066400
    110 C36         -1.3690     8.0670   -11.9060 c3         1 LUX      -0.086100
    111 H27         -3.0340     6.6180    -8.2720 hc         1 LUX       0.039200
    112 H271        -2.2670     5.1460    -8.8250 hc         1 LUX       0.039200
    113 H311        -0.9120     6.5110    -4.2380 hc         1 LUX       0.039700
    114 H312        -2.1850     6.1480    -3.0940 hc         1 LUX       0.039700
@<TRIPOS>BOND
     1     1     2 1   
     2     1     6 1   
     3     1    16 1   
     4     1    17 1   
     5     2     3 1   
     6     2    40 1   
     7     2    41 1   
     8     3     4 1   
     9     3    21 1   
    10     3    42 1   
    11     4     5 1   
    12     4    43 1   
    13     4    44 1   
    14     5     6 2   
    15     5    18 1   
    16     6     7 1   
    17     7     8 2   
    18     7    45 1   
    19     8     9 1   
    20     8    46 1   
    21     9    10 1   
    22     9    19 1   
    23     9    47 1   
    24    10    11 1   
    25    10    48 1   
    26    10    49 1   
    27    11    12 1   
    28    11    50 1   
    29    11    51 1   
    30    12    13 1   
    31    12    52 1   
    32    12    53 1   
    33    13    14 1   
    34    13    20 1   
    35    13    54 1   
    36    14    15 1   
    37    14    55 1   
    38    14    56 1   
    39    15    34 1   
    40    15    57 1   
    41    15    58 1   
    42    16    59 1   
    43    16    60 1   
    44    16    61 1   
    45    17    62 1   
    46    17    63 1   
    47    17    64 1   
    48    18    65 1   
    49    18    66 1   
    50    18    67 1   
    51    19    68 1   
    52    19    69 1   
    53    19    70 1   
    54    20    71 1   
    55    20    72 1   
    56    20    73 1   
    57    21    74 1   
    58    22    23 1   
    59    22    27 1   
    60    22    35 1   
    61    22   110 1   
    62    23    24 1   
    63    23    75 1   
    64    23    76 1   
    65    24    25 1   
    66    24    39 1   
    67    24    77 1   
    68    25    26 2   
    69    25    78 1   
    70    26    27 1   
    71    26    36 1   
    72    27    79 1   
    73    27   109 1   
    74    28    29 1   
    75    28    80 1   
    76    28    81 1   
    77    28   109 1   
    78    29    30 1   
    79    29    37 1   
    80    29    82 1   
    81    30    83 1   
    82    30    84 1   
    83    30   108 1   
    84    31    32 1   
    85    31    85 1   
    86    31    86 1   
    87    31   108 1   
    88    32    33 1   
    89    32    38 1   
    90    32    87 1   
    91    33    34 1   
    92    33    88 1   
    93    33    89 1   
    94    34    90 1   
    95    34    91 1   
    96    35    95 1   
    97    35    96 1   
    98    35    97 1   
    99    36    98 1   
   100    36    99 1   
   101    36   100 1   
   102    37   101 1   
   103    37   102 1   
   104    37   103 1   
   105    38   104 1   
   106    38   105 1   
   107    38   106 1   
   108    39   107 1   
   109    92   110 1   
   110    93   110 1   
   111    94   110 1   
   112   108   113 1   
   113   108   114 1   
   114   109   111 1   
   115   109   112 1   
@<TRIPOS>SUBSTRUCTURE
     1 LUX         1 TEMP              0 ****  ****    0 ROOT
