@<TRIPOS>MOLECULE
LUY
   33    35     1     0     0
SMALL
No Charge or Current Charge


@<TRIPOS>ATOM
      1 N1          -1.7580     0.6800     0.0380 na         1 LUY      -0.351600
      2 C4           4.2320    -0.0820     1.2050 ca         1 LUY      -0.104500
      3 C5           5.4250     0.6620     1.2000 ca         1 LUY      -0.108000
      4 C6           2.3250    -1.2530    -0.0040 c3         1 LUY      -0.042100
      5 C7           1.0850    -0.3390     0.0100 c3         1 LUY       0.219800
      6 C8          -1.4170    -0.6560     0.0260 cc         1 LUY       0.651700
      7 C10         -3.9910     1.8170     0.0610 ca         1 LUY      -0.110000
      8 C13         -4.9190    -0.8720     0.0460 ca         1 LUY      -0.069000
      9 N           -0.1530    -1.1280     0.0140 nu         1 LUY      -0.892400
     10 C            6.0150     1.0390    -0.0180 ca         1 LUY      -0.106000
     11 C1           5.4100     0.6720    -1.2320 ca         1 LUY      -0.108000
     12 C11         -5.3740     1.5420     0.0670 ca         1 LUY      -0.110000
     13 C12         -5.8370     0.2030     0.0600 ca         1 LUY      -0.126000
     14 C14         -3.5480    -0.5760     0.0400 ca         1 LUY       0.106400
     15 C2           4.2170    -0.0710    -1.2280 ca         1 LUY      -0.104500
     16 C3           3.6220    -0.4540    -0.0090 ca         1 LUY      -0.088300
     17 C9          -3.1180     0.7230     0.0470 ca         1 LUY      -0.088200
     18 N2          -2.4740    -1.4670     0.0260 nd         1 LUY      -0.649100
     19 H1          -1.1110     1.4530     0.0400 hn         1 LUY       0.354000
     20 H3           5.8920     0.9460     2.1410 ha         1 LUY       0.115000
     21 H4           2.2950    -1.9150     0.8700 hc         1 LUY       0.058700
     22 H5           2.2830    -1.9040    -0.8860 hc         1 LUY       0.058700
     23 H6           1.1220     0.3010     0.9020 h1         1 LUY       0.039700
     24 H7           1.1090     0.3120    -0.8750 h1         1 LUY       0.039700
     25 H8          -3.6190     2.8390     0.0660 ha         1 LUY       0.113000
     26 H9          -5.2640    -1.9030     0.0410 ha         1 LUY       0.126000
     27 H10         -0.1020    -2.1440     0.0050 hn         1 LUY       0.502000
     28 H11          6.9380     1.6150    -0.0220 ha         1 LUY       0.115000
     29 H12          5.8650     0.9650    -2.1760 ha         1 LUY       0.115000
     30 H13         -6.0890     2.3620     0.0780 ha         1 LUY       0.110000
     31 H14         -6.9050    -0.0000     0.0660 ha         1 LUY       0.111000
     32 H15          3.7540    -0.3490    -2.1730 ha         1 LUY       0.112500
     33 H2           3.7820    -0.3670     2.1530 ha         1 LUY       0.112500
@<TRIPOS>BOND
     1     1     6 1   
     2     1    17 1   
     3     1    19 1   
     4     2     3 ar  
     5     2    16 ar  
     6     2    33 1   
     7     3    10 ar  
     8     3    20 1   
     9     4     5 1   
    10     4    16 1   
    11     4    21 1   
    12     4    22 1   
    13     5     9 1   
    14     5    23 1   
    15     5    24 1   
    16     6     9 1   
    17     6    18 2   
    18     7    12 ar  
    19     7    17 ar  
    20     7    25 1   
    21     8    13 ar  
    22     8    14 ar  
    23     8    26 1   
    24     9    27 1   
    25    10    11 ar  
    26    10    28 1   
    27    11    15 ar  
    28    11    29 1   
    29    12    13 ar  
    30    12    30 1   
    31    13    31 1   
    32    14    17 ar  
    33    14    18 1   
    34    15    16 ar  
    35    15    32 1   
@<TRIPOS>SUBSTRUCTURE
     1 LUY         1 TEMP              0 ****  ****    0 ROOT
