@<TRIPOS>MOLECULE
LUY
   33    35     1     0     0
SMALL
bcc


@<TRIPOS>ATOM
      1 N1          -1.6410     0.5510     0.2160 na         1 LUY      -0.301300
      2 C4           4.1520     0.0400     1.2010 ca         1 LUY      -0.122500
      3 C5           5.2860     0.8380     1.1240 ca         1 LUY      -0.126000
      4 C6           2.3080    -1.3000     0.1340 c3         1 LUY      -0.042100
      5 C7           1.0550    -0.4440    -0.0150 c3         1 LUY       0.219800
      6 C8          -1.3780    -0.7760     0.0500 cc         1 LUY       0.651700
      7 C10         -3.8330     1.8100     0.2540 ca         1 LUY      -0.128000
      8 C13         -4.8720    -0.8000    -0.1750 ca         1 LUY      -0.087000
      9 N           -0.1250    -1.2760     0.0990 nu         1 LUY      -0.837200
     10 C            5.8380     1.1470    -0.1130 ca         1 LUY      -0.124000
     11 C1           5.2470     0.6530    -1.2690 ca         1 LUY      -0.126000
     12 C11         -5.2010     1.5880     0.1380 ca         1 LUY      -0.128000
     13 C12         -5.7090     0.3040    -0.0730 ca         1 LUY      -0.144000
     14 C14         -3.4990    -0.5980    -0.0610 ca         1 LUY       0.106400
     15 C2           4.1140    -0.1440    -1.1870 ca         1 LUY      -0.122500
     16 C3           3.5530    -0.4630     0.0490 ca         1 LUY      -0.088300
     17 C9          -3.0090     0.7030     0.1510 ca         1 LUY      -0.088200
     18 N2          -2.4620    -1.4980    -0.1220 nd         1 LUY      -0.649100
     19 H1          -0.9680     1.2870     0.3510 hn         1 LUY       0.303700
     20 H3           5.7420     1.2130     2.0310 ha         1 LUY       0.133000
     21 H4           2.2700    -1.8250     1.0910 hc         1 LUY       0.058700
     22 H5           2.3170    -2.0620    -0.6500 hc         1 LUY       0.058700
     23 H6           1.0480     0.3100     0.7760 h1         1 LUY       0.039700
     24 H7           1.0850     0.0890    -0.9730 h1         1 LUY       0.039700
     25 H8          -3.4370     2.8040     0.4200 ha         1 LUY       0.131000
     26 H9          -5.2730    -1.7920    -0.3390 ha         1 LUY       0.144000
     27 H10         -0.0480    -2.2190    -0.2490 hn         1 LUY       0.446800
     28 H11          6.7240     1.7650    -0.1740 ha         1 LUY       0.133000
     29 H12          5.6730     0.8830    -2.2370 ha         1 LUY       0.133000
     30 H13         -5.8820     2.4250     0.2120 ha         1 LUY       0.128000
     31 H14         -6.7800     0.1670    -0.1570 ha         1 LUY       0.129000
     32 H15          3.6630    -0.5290    -2.0940 ha         1 LUY       0.130500
     33 H2           3.7310    -0.1990     2.1710 ha         1 LUY       0.130500
@<TRIPOS>BOND
     1     1     6 1   
     2     1    17 1   
     3     1    19 1   
     4     2     3 ar  
     5     2    16 ar  
     6     2    33 1   
     7     3    10 ar  
     8     3    20 1   
     9     4     5 1   
    10     4    16 1   
    11     4    21 1   
    12     4    22 1   
    13     5     9 1   
    14     5    23 1   
    15     5    24 1   
    16     6     9 1   
    17     6    18 2   
    18     7    12 ar  
    19     7    17 ar  
    20     7    25 1   
    21     8    13 ar  
    22     8    14 ar  
    23     8    26 1   
    24     9    27 1   
    25    10    11 ar  
    26    10    28 1   
    27    11    15 ar  
    28    11    29 1   
    29    12    13 ar  
    30    12    30 1   
    31    13    31 1   
    32    14    17 ar  
    33    14    18 1   
    34    15    16 ar  
    35    15    32 1   
@<TRIPOS>SUBSTRUCTURE
     1 LUY         1 TEMP              0 ****  ****    0 ROOT
