@<TRIPOS>MOLECULE
LUZ
   16    17     1     0     0
SMALL
abcg2


@<TRIPOS>ATOM
      1 N1          -0.7890    -1.3860     0.0120 ns         1 LUZ      -0.586900
      2 C2          -1.9580    -0.6780     0.0010 c          1 LUZ       0.633000
      3 C10          0.4510    -0.8150     0.0110 ca         1 LUZ       0.471900
      4 O2          -3.0480    -1.2030     0.0010 o          1 LUZ      -0.532000
      5 N3          -1.8000     0.6930    -0.0110 ns         1 LUZ      -0.478500
      6 C4          -0.6280     1.4150    -0.0100 c          1 LUZ       0.496500
      7 O4          -0.6190     2.6230    -0.0180 o          1 LUZ      -0.472000
      8 C4A          0.5800     0.5740    -0.0000 ca         1 LUZ       0.185500
      9 N5           1.7710     1.1530    -0.0010 nb         1 LUZ      -0.545000
     10 C5A          2.8260     0.3650     0.0080 ca         1 LUZ       0.244900
     11 C9A          2.6870    -1.0260     0.0190 ca         1 LUZ       0.358900
     12 N10          1.5080    -1.6150     0.0200 nb         1 LUZ      -0.688000
     13 HN1         -0.8530    -2.3960     0.0210 hn         1 LUZ       0.478000
     14 HN3         -2.6610     1.2270    -0.0200 hn         1 LUZ       0.350500
     15 H5A          3.8060     0.8230     0.0070 h4         1 LUZ       0.045100
     16 H9A          3.5610    -1.6650     0.0270 h4         1 LUZ       0.039100
@<TRIPOS>BOND
     1     1     2 1   
     2     1     3 1   
     3     1    13 1   
     4     2     4 2   
     5     2     5 1   
     6     3     8 ar  
     7     3    12 ar  
     8     5     6 1   
     9     5    14 1   
    10     6     7 2   
    11     6     8 1   
    12     8     9 ar  
    13     9    10 ar  
    14    10    11 ar  
    15    10    15 1   
    16    11    12 ar  
    17    11    16 1   
@<TRIPOS>SUBSTRUCTURE
     1 LUZ         1 TEMP              0 ****  ****    0 ROOT
