@<TRIPOS>MOLECULE
LUZ
   16    17     1     0     0
SMALL
No Charge or Current Charge


@<TRIPOS>ATOM
      1 N1          -0.7950    -1.3460     0.0100 ns         1 LUZ      -0.586900
      2 C2          -1.9740    -0.6810     0.0010 c          1 LUZ       0.633000
      3 C10          0.4560    -0.7680     0.0100 ca         1 LUZ       0.471900
      4 O2          -3.0490    -1.2450     0.0020 o          1 LUZ      -0.532000
      5 N3          -1.8410     0.6780    -0.0090 ns         1 LUZ      -0.478500
      6 C4          -0.6840     1.4280    -0.0120 c          1 LUZ       0.496500
      7 O4          -0.7340     2.6510    -0.0220 o          1 LUZ      -0.472000
      8 C4A          0.6060     0.6350    -0.0010 ca         1 LUZ       0.185500
      9 N5           1.8440     1.2220    -0.0020 nb         1 LUZ      -0.545000
     10 C5A          2.8930     0.3470     0.0090 ca         1 LUZ       0.244900
     11 C9A          2.7110    -1.0660     0.0200 ca         1 LUZ       0.358900
     12 N10          1.4740    -1.6480     0.0200 nb         1 LUZ      -0.688000
     13 HN1         -0.8280    -2.3560     0.0190 hn         1 LUZ       0.478000
     14 HN3         -2.7070     1.1980    -0.0160 hn         1 LUZ       0.350500
     15 H5A          3.8930     0.7780     0.0090 h4         1 LUZ       0.045100
     16 H9A          3.5690    -1.7360     0.0280 h4         1 LUZ       0.039100
@<TRIPOS>BOND
     1     1     2 1   
     2     1     3 1   
     3     1    13 1   
     4     2     4 2   
     5     2     5 1   
     6     3     8 ar  
     7     3    12 ar  
     8     5     6 1   
     9     5    14 1   
    10     6     7 2   
    11     6     8 1   
    12     8     9 ar  
    13     9    10 ar  
    14    10    11 ar  
    15    10    15 1   
    16    11    12 ar  
    17    11    16 1   
@<TRIPOS>SUBSTRUCTURE
     1 LUZ         1 TEMP              0 ****  ****    0 ROOT
