@<TRIPOS>MOLECULE
LV0
   49    51     1     0     0
SMALL
No Charge or Current Charge


@<TRIPOS>ATOM
      1 C02         10.7380   -29.8060     0.7380 c          1 LV0       0.615700
      2 O01          9.7160   -30.3360     0.3230 o          1 LV0      -0.583100
      3 C23         10.7120   -28.5050     1.5140 ca         1 LV0      -0.148600
      4 C24          9.4690   -27.8880     1.7910 ca         1 LV0      -0.073500
      5 C25          9.4090   -26.6770     2.5010 ca         1 LV0      -0.122500
      6 C26         10.5890   -26.0620     2.9460 ca         1 LV0      -0.092000
      7 C27         11.8290   -26.6610     2.6810 ca         1 LV0      -0.122500
      8 C28         11.8960   -27.8740     1.9720 ca         1 LV0      -0.073500
      9 C04         12.2310   -31.6050    -0.2350 c3         1 LV0       0.114700
     10 C12         13.1520   -31.3410    -1.4590 c3         1 LV0       0.078300
     11 N03         11.9790   -30.3620     0.5110 ns         1 LV0      -0.493900
     12 O13         14.4560   -30.8580    -1.0170 oh         1 LV0      -0.667000
     13 C14         12.4470   -30.3600    -2.4450 c          1 LV0       0.573100
     14 C05         12.7590   -32.7160     0.7070 c3         1 LV0      -0.050100
     15 C06         11.8090   -33.0050     1.8650 ca         1 LV0      -0.085300
     16 C11         10.6710   -33.8110     1.6640 ca         1 LV0      -0.100000
     17 C10          9.7870   -34.0670     2.7260 ca         1 LV0      -0.106000
     18 C09         10.0330   -33.5180     3.9960 ca         1 LV0      -0.106000
     19 C08         11.1660   -32.7120     4.2020 ca         1 LV0      -0.106000
     20 C07         12.0510   -32.4560     3.1410 ca         1 LV0      -0.100000
     21 O22         11.5510   -30.7090    -3.2010 o          1 LV0      -0.572100
     22 C17         11.3680   -27.1120    -2.3160 cc         1 LV0       0.408700
     23 C20         10.3240   -25.6210    -0.7300 cc         1 LV0      -0.261000
     24 C16         12.3310   -27.9280    -3.1480 c3         1 LV0       0.073700
     25 C19          9.4480   -26.3560    -1.4930 cd         1 LV0       0.275900
     26 N15         12.9240   -29.0660    -2.4200 ns         1 LV0      -0.508900
     27 N18         10.0460   -27.2090    -2.4090 nd         1 LV0      -0.636000
     28 S21         11.9770   -25.9870    -1.1280 ss         1 LV0      -0.018400
     29 H1           8.5420   -28.3460     1.4520 ha         1 LV0       0.125000
     30 H2           8.4460   -26.2150     2.7050 ha         1 LV0       0.116500
     31 H3          10.5410   -25.1240     3.4950 ha         1 LV0       0.114000
     32 H4          12.7450   -26.1850     3.0250 ha         1 LV0       0.116500
     33 H5          12.8760   -28.3040     1.7860 ha         1 LV0       0.125000
     34 H7          11.2740   -31.9690    -0.6380 h1         1 LV0       0.113700
     35 H14         13.2710   -32.2890    -2.0020 h1         1 LV0       0.066700
     36 H15         12.7800   -29.8720     0.8850 hn         1 LV0       0.314500
     37 H16         15.1030   -31.0420    -1.7360 ho         1 LV0       0.452000
     38 H8          12.9190   -33.6310     0.1240 hc         1 LV0       0.054700
     39 H9          13.7440   -32.4280     1.0930 hc         1 LV0       0.054700
     40 H13         10.4700   -34.2370     0.6840 ha         1 LV0       0.108500
     41 H6           8.9100   -34.6900     2.5640 ha         1 LV0       0.112500
     42 H12          9.3480   -33.7150     4.8170 ha         1 LV0       0.112000
     43 H11         11.3570   -32.2840     5.1840 ha         1 LV0       0.112500
     44 H10         12.9220   -31.8280     3.3090 ha         1 LV0       0.108500
     45 H17         10.1010   -24.9010     0.0450 h4         1 LV0       0.161000
     46 H18         11.8100   -28.2940    -4.0430 h1         1 LV0       0.073200
     47 H19         13.1410   -27.2720    -3.4890 h1         1 LV0       0.073200
     48 H20          8.3670   -26.3120    -1.4280 h4         1 LV0       0.040100
     49 H21         13.6870   -28.8950    -1.7720 hn         1 LV0       0.331500
@<TRIPOS>BOND
     1     1     2 2   
     2     1     3 1   
     3     1    11 1   
     4     3     4 ar  
     5     3     8 ar  
     6     4     5 ar  
     7     4    29 1   
     8     5     6 ar  
     9     5    30 1   
    10     6     7 ar  
    11     6    31 1   
    12     7     8 ar  
    13     7    32 1   
    14     8    33 1   
    15     9    10 1   
    16     9    11 1   
    17     9    14 1   
    18     9    34 1   
    19    10    12 1   
    20    10    13 1   
    21    10    35 1   
    22    11    36 1   
    23    12    37 1   
    24    13    21 2   
    25    13    26 1   
    26    14    15 1   
    27    14    38 1   
    28    14    39 1   
    29    15    16 ar  
    30    15    20 ar  
    31    16    17 ar  
    32    16    40 1   
    33    17    18 ar  
    34    17    41 1   
    35    18    19 ar  
    36    18    42 1   
    37    19    20 ar  
    38    19    43 1   
    39    20    44 1   
    40    22    24 1   
    41    22    27 2   
    42    22    28 1   
    43    23    25 2   
    44    23    28 1   
    45    23    45 1   
    46    24    26 1   
    47    24    46 1   
    48    24    47 1   
    49    25    27 1   
    50    25    48 1   
    51    26    49 1   
@<TRIPOS>SUBSTRUCTURE
     1 LV0         1 TEMP              0 ****  ****    0 ROOT
