@<TRIPOS>MOLECULE
LV0
   49    51     1     0     0
SMALL
bcc


@<TRIPOS>ATOM
      1 C02         10.8130   -29.7310     0.9800 c          1 LV0       0.682700
      2 O01          9.7390   -30.1800     0.6100 o          1 LV0      -0.583100
      3 C23         10.8720   -28.6030     1.9620 ca         1 LV0      -0.148600
      4 C24          9.7590   -28.3950     2.7740 ca         1 LV0      -0.091500
      5 C25          9.7520   -27.3710     3.7090 ca         1 LV0      -0.140500
      6 C26         10.8520   -26.5340     3.8330 ca         1 LV0      -0.110000
      7 C27         11.9600   -26.7250     3.0180 ca         1 LV0      -0.140500
      8 C28         11.9720   -27.7550     2.0890 ca         1 LV0      -0.091500
      9 C04         12.1360   -31.4240    -0.2150 c3         1 LV0       0.114700
     10 C12         13.0460   -31.1950    -1.4240 c3         1 LV0       0.055100
     11 N03         12.0010   -30.2070     0.5540 ns         1 LV0      -0.560900
     12 O13         14.3080   -30.7740    -0.9750 oh         1 LV0      -0.604800
     13 C14         12.3860   -30.1960    -2.3740 c          1 LV0       0.640100
     14 C05         12.6470   -32.5750     0.6660 c3         1 LV0      -0.050100
     15 C06         11.7400   -32.8070     1.8400 ca         1 LV0      -0.085300
     16 C11         10.6210   -33.6290     1.7240 ca         1 LV0      -0.118000
     17 C10          9.7460   -33.7940     2.7880 ca         1 LV0      -0.124000
     18 C09          9.9750   -33.1320     3.9880 ca         1 LV0      -0.124000
     19 C08         11.0890   -32.3140     4.1170 ca         1 LV0      -0.124000
     20 C07         11.9640   -32.1560     3.0510 ca         1 LV0      -0.118000
     21 O22         11.3220   -30.4570    -2.9130 o          1 LV0      -0.572100
     22 C17         11.3500   -27.3230    -2.9690 cc         1 LV0       0.408700
     23 C20          9.6810   -26.2220    -1.6120 cc         1 LV0      -0.199400
     24 C16         12.5580   -28.0450    -3.4820 c3         1 LV0       0.073700
     25 C19          9.5200   -26.1160    -2.9550 cd         1 LV0       0.341200
     26 N15         13.0420   -29.0420    -2.5660 ns         1 LV0      -0.575900
     27 N18         10.4690   -26.7420    -3.7140 nd         1 LV0      -0.636000
     28 S21         11.0830   -27.1480    -1.2730 ss         1 LV0      -0.163300
     29 H1           8.8980   -29.0420     2.6790 ha         1 LV0       0.143000
     30 H2           8.8850   -27.2260     4.3400 ha         1 LV0       0.134500
     31 H3          10.8460   -25.7320     4.5590 ha         1 LV0       0.132000
     32 H4          12.8160   -26.0690     3.1000 ha         1 LV0       0.134500
     33 H5          12.8400   -27.8650     1.4510 ha         1 LV0       0.143000
     34 H7          11.1490   -31.6860    -0.5940 h1         1 LV0       0.113700
     35 H14         13.1070   -32.1440    -1.9710 h1         1 LV0       0.066700
     36 H15         12.8380   -29.8760     1.0090 hn         1 LV0       0.314500
     37 H16         14.9880   -31.1040    -1.5700 ho         1 LV0       0.413000
     38 H8          12.7120   -33.4750     0.0510 hc         1 LV0       0.054700
     39 H9          13.6580   -32.3490     1.0140 hc         1 LV0       0.054700
     40 H13         10.4330   -34.1440     0.7890 ha         1 LV0       0.126500
     41 H6           8.8840   -34.4400     2.6810 ha         1 LV0       0.130500
     42 H12          9.2920   -33.2580     4.8180 ha         1 LV0       0.130000
     43 H11         11.2790   -31.7990     5.0500 ha         1 LV0       0.130500
     44 H10         12.8330   -31.5180     3.1620 ha         1 LV0       0.126500
     45 H17          9.0550   -25.8280    -0.8270 h4         1 LV0       0.179000
     46 H18         12.3160   -28.4810    -4.4530 h1         1 LV0       0.073200
     47 H19         13.3630   -27.3260    -3.6460 h1         1 LV0       0.073200
     48 H20          8.7070   -25.5910    -3.4380 h4         1 LV0       0.040100
     49 H21         13.9210   -28.8950    -2.0970 hn         1 LV0       0.331500
@<TRIPOS>BOND
     1     1     2 2   
     2     1     3 1   
     3     1    11 1   
     4     3     4 ar  
     5     3     8 ar  
     6     4     5 ar  
     7     4    29 1   
     8     5     6 ar  
     9     5    30 1   
    10     6     7 ar  
    11     6    31 1   
    12     7     8 ar  
    13     7    32 1   
    14     8    33 1   
    15     9    10 1   
    16     9    11 1   
    17     9    14 1   
    18     9    34 1   
    19    10    12 1   
    20    10    13 1   
    21    10    35 1   
    22    11    36 1   
    23    12    37 1   
    24    13    21 2   
    25    13    26 1   
    26    14    15 1   
    27    14    38 1   
    28    14    39 1   
    29    15    16 ar  
    30    15    20 ar  
    31    16    17 ar  
    32    16    40 1   
    33    17    18 ar  
    34    17    41 1   
    35    18    19 ar  
    36    18    42 1   
    37    19    20 ar  
    38    19    43 1   
    39    20    44 1   
    40    22    24 1   
    41    22    27 2   
    42    22    28 1   
    43    23    25 2   
    44    23    28 1   
    45    23    45 1   
    46    24    26 1   
    47    24    46 1   
    48    24    47 1   
    49    25    27 1   
    50    25    48 1   
    51    26    49 1   
@<TRIPOS>SUBSTRUCTURE
     1 LV0         1 TEMP              0 ****  ****    0 ROOT
