@<TRIPOS>MOLECULE
LV1
   29    30     1     0     0
SMALL
No Charge or Current Charge


@<TRIPOS>ATOM
      1 N1         -12.9970   -21.7040    -0.9340 ns         1 LV1      -0.185000
      2 C4         -10.9640   -19.4740     4.1140 ca         1 LV1       0.167100
      3 C5         -11.4050   -18.1610     4.3260 ca         1 LV1      -0.237000
      4 C6         -12.3400   -21.4440     0.2580 c          1 LV1       0.669100
      5 C7         -14.0380   -21.0110    -1.6090 ca         1 LV1      -0.059000
      6 C8         -14.0370   -21.0090    -3.0170 ca         1 LV1      -0.109500
      7 C10        -16.0860   -19.7000    -3.0320 ca         1 LV1       0.164000
      8 N          -12.6210   -20.2030     0.8110 ns         1 LV1      -0.158000
      9 C          -12.2370   -17.5430     3.3800 ca         1 LV1      -0.040000
     10 O          -10.1590   -20.0770     5.0310 oh         1 LV1      -0.529100
     11 C1         -12.6230   -18.2440     2.2250 ca         1 LV1      -0.211000
     12 C11        -16.1100   -19.7150    -1.6300 ca         1 LV1      -0.134500
     13 C12        -15.0930   -20.3750    -0.9160 ca         1 LV1      -0.109500
     14 C2         -12.1840   -19.5620     2.0000 ca         1 LV1       0.031000
     15 C3         -11.3490   -20.1740     2.9610 ca         1 LV1      -0.174000
     16 C9         -15.0550   -20.3490    -3.7290 ca         1 LV1      -0.134500
     17 F          -17.0650   -19.0680    -3.7150 f          1 LV1      -0.174000
     18 O1         -11.5540   -22.2540     0.7340 o          1 LV1      -0.608100
     19 H1         -12.7040   -22.5610    -1.3850 hn         1 LV1       0.175000
     20 H2         -11.1090   -17.6140     5.2180 ha         1 LV1       0.115000
     21 H3         -13.2410   -21.5120    -3.5640 ha         1 LV1       0.130000
     22 H4         -13.2570   -19.6450     0.2580 hn         1 LV1       0.157000
     23 H5         -12.5830   -16.5230     3.5400 ha         1 LV1       0.112000
     24 H6          -9.9990   -19.4410     5.7600 ho         1 LV1       0.464000
     25 H7         -13.2690   -17.7550     1.4990 ha         1 LV1       0.112000
     26 H8         -16.9220   -19.2250    -1.0980 ha         1 LV1       0.137500
     27 H9         -15.1510   -20.4060     0.1700 ha         1 LV1       0.130000
     28 H10        -10.9920   -21.1900     2.8360 ha         1 LV1       0.162000
     29 H11        -15.0480   -20.3400    -4.8160 ha         1 LV1       0.137500
@<TRIPOS>BOND
     1     1     4 1   
     2     1     5 1   
     3     1    19 1   
     4     2     3 ar  
     5     2    10 1   
     6     2    15 ar  
     7     3     9 ar  
     8     3    20 1   
     9     4     8 1   
    10     4    18 2   
    11     5     6 ar  
    12     5    13 ar  
    13     6    16 ar  
    14     6    21 1   
    15     7    12 ar  
    16     7    16 ar  
    17     7    17 1   
    18     8    14 1   
    19     8    22 1   
    20     9    11 ar  
    21     9    23 1   
    22    10    24 1   
    23    11    14 ar  
    24    11    25 1   
    25    12    13 ar  
    26    12    26 1   
    27    13    27 1   
    28    14    15 ar  
    29    15    28 1   
    30    16    29 1   
@<TRIPOS>SUBSTRUCTURE
     1 LV1         1 TEMP              0 ****  ****    0 ROOT
