@<TRIPOS>MOLECULE
LV1
   29    30     1     0     0
SMALL
abcg2


@<TRIPOS>ATOM
      1 N1         -13.0480   -21.7600    -0.8460 ns         1 LV1      -0.185000
      2 C4         -11.0800   -19.4790     4.0560 ca         1 LV1       0.167100
      3 C5         -11.3640   -18.1250     4.1960 ca         1 LV1      -0.237000
      4 C6         -12.3660   -21.3930     0.2830 c          1 LV1       0.669100
      5 C7         -14.0620   -21.0550    -1.5210 ca         1 LV1      -0.059000
      6 C8         -13.9170   -20.7790    -2.8780 ca         1 LV1      -0.109500
      7 C10        -16.0570   -19.7360    -2.8980 ca         1 LV1       0.164000
      8 N          -12.6660   -20.1500     0.7640 ns         1 LV1      -0.158000
      9 C          -12.0700   -17.4860     3.1870 ca         1 LV1      -0.040000
     10 O          -10.4030   -20.1750     4.9910 oh         1 LV1      -0.529100
     11 C1         -12.4840   -18.1680     2.0580 ca         1 LV1      -0.211000
     12 C11        -16.2280   -19.9910    -1.5510 ca         1 LV1      -0.134500
     13 C12        -15.2310   -20.6710    -0.8680 ca         1 LV1      -0.109500
     14 C2         -12.1920   -19.5300     1.9200 ca         1 LV1       0.031000
     15 C3         -11.4900   -20.1870     2.9270 ca         1 LV1      -0.174000
     16 C9         -14.9210   -20.1280    -3.5780 ca         1 LV1      -0.134500
     17 F          -17.0270   -19.0930    -3.5650 f          1 LV1      -0.174000
     18 O1         -11.5480   -22.1440     0.7900 o          1 LV1      -0.608100
     19 H1         -12.6770   -22.5800    -1.3020 hn         1 LV1       0.175000
     20 H2         -11.0400   -17.5770     5.0730 ha         1 LV1       0.115000
     21 H3         -13.0130   -21.0780    -3.3940 ha         1 LV1       0.130000
     22 H4         -13.2310   -19.5540     0.1790 hn         1 LV1       0.157000
     23 H5         -12.3010   -16.4330     3.2840 ha         1 LV1       0.112000
     24 H6         -10.1770   -19.6040     5.7340 ho         1 LV1       0.464000
     25 H7         -13.0310   -17.6480     1.2810 ha         1 LV1       0.112000
     26 H8         -17.1330   -19.6850    -1.0440 ha         1 LV1       0.137500
     27 H9         -15.3780   -20.9130     0.1770 ha         1 LV1       0.130000
     28 H10        -11.2500   -21.2350     2.8530 ha         1 LV1       0.162000
     29 H11        -14.8110   -19.9200    -4.6340 ha         1 LV1       0.137500
@<TRIPOS>BOND
     1     1     4 1   
     2     1     5 1   
     3     1    19 1   
     4     2     3 ar  
     5     2    10 1   
     6     2    15 ar  
     7     3     9 ar  
     8     3    20 1   
     9     4     8 1   
    10     4    18 2   
    11     5     6 ar  
    12     5    13 ar  
    13     6    16 ar  
    14     6    21 1   
    15     7    12 ar  
    16     7    16 ar  
    17     7    17 1   
    18     8    14 1   
    19     8    22 1   
    20     9    11 ar  
    21     9    23 1   
    22    10    24 1   
    23    11    14 ar  
    24    11    25 1   
    25    12    13 ar  
    26    12    26 1   
    27    13    27 1   
    28    14    15 ar  
    29    15    28 1   
    30    16    29 1   
@<TRIPOS>SUBSTRUCTURE
     1 LV1         1 TEMP              0 ****  ****    0 ROOT
