@<TRIPOS>MOLECULE
LV4
   22    22     1     0     0
SMALL
bcc


@<TRIPOS>ATOM
      1 N1           2.9420     2.3850     0.4730 nt         1 LV4      -0.620000
      2 C4           0.8760    -0.5640     0.5610 ca         1 LV4       0.048600
      3 C5           1.5490    -1.7750     0.6280 ca         1 LV4      -0.072000
      4 C6           2.4520     1.2250     0.0410 cs         1 LV4       0.623400
      5 C7          -2.2980     0.9440    -0.1700 c3         1 LV4       0.866700
      6 N            1.5350     0.6470     0.8430 ns         1 LV4      -0.438100
      7 C            0.8840    -2.9640     0.3800 ca         1 LV4      -0.133000
      8 C1          -0.4690    -2.9400     0.0760 ca         1 LV4      -0.090000
      9 C2          -1.1640    -1.7410     0.0130 ca         1 LV4      -0.173000
     10 C3          -0.4820    -0.5550     0.2460 ca         1 LV4       0.138100
     11 F           -3.1980     0.4020     0.6510 f          1 LV4      -0.225300
     12 F1          -2.4670     2.2560    -0.1560 f          1 LV4      -0.225300
     13 F2          -2.5610     0.5020    -1.4000 f          1 LV4      -0.225300
     14 S            2.9570     0.5450    -1.4120 s          1 LV4      -0.657400
     15 H1           3.6320     2.8640    -0.0770 hn         1 LV4       0.328500
     16 H2           2.6580     2.8130     1.3410 hn         1 LV4       0.328500
     17 H3           2.6010    -1.7730     0.8780 ha         1 LV4       0.156000
     18 H4           1.2120     1.1650     1.6490 hn         1 LV4       0.317500
     19 H5           1.4160    -3.9040     0.4340 ha         1 LV4       0.146000
     20 H6          -1.0020    -3.8630    -0.1100 ha         1 LV4       0.141000
     21 H7          -2.2190    -1.7700    -0.2190 ha         1 LV4       0.154000
     22 O           -1.0380     0.7050     0.2100 os         1 LV4      -0.388900
@<TRIPOS>BOND
     1     1     4 1   
     2     1    15 1   
     3     1    16 1   
     4     2     3 ar  
     5     2     6 1   
     6     2    10 ar  
     7     3     7 ar  
     8     3    17 1   
     9     4     6 1   
    10     4    14 2   
    11     5    11 1   
    12     5    12 1   
    13     5    13 1   
    14     5    22 1   
    15     6    18 1   
    16     7     8 ar  
    17     7    19 1   
    18     8     9 ar  
    19     8    20 1   
    20     9    10 ar  
    21     9    21 1   
    22    10    22 1   
@<TRIPOS>SUBSTRUCTURE
     1 LV4         1 TEMP              0 ****  ****    0 ROOT
