@<TRIPOS>MOLECULE
LV4
   22    22     1     0     0
SMALL
No Charge or Current Charge


@<TRIPOS>ATOM
      1 N1           3.0270     2.4270     0.5010 nt         1 LV4      -0.553000
      2 C4           0.9130    -0.5370     0.2780 ca         1 LV4       0.048600
      3 C5           1.5830    -1.7800     0.2960 ca         1 LV4      -0.054000
      4 C6           2.8870     1.1190     0.2540 cs         1 LV4       0.489400
      5 C7          -2.5430     0.9300     0.0950 c3         1 LV4       0.526000
      6 N            1.5900     0.7100     0.3890 ns         1 LV4      -0.371100
      7 C            0.8590    -2.9800     0.1910 ca         1 LV4      -0.115000
      8 C1          -0.5380    -2.9520     0.0770 ca         1 LV4      -0.072000
      9 C2          -1.2190    -1.7240     0.0750 ca         1 LV4      -0.155000
     10 C3          -0.4990    -0.5110     0.1810 ca         1 LV4       0.138100
     11 F           -3.2110     0.3460     1.1170 f          1 LV4      -0.104000
     12 F1          -2.8430     2.2460     0.1330 f          1 LV4      -0.104000
     13 F2          -3.0460     0.4460    -1.0640 f          1 LV4      -0.104000
     14 S            4.2010     0.2210    -0.2370 s          1 LV4      -0.657400
     15 H1           3.9390     2.8510     0.4090 hn         1 LV4       0.328500
     16 H2           2.2440     2.9960     0.7850 hn         1 LV4       0.328500
     17 H3           2.6590    -1.8370     0.4080 ha         1 LV4       0.138000
     18 H4           0.9450     1.4610     0.6040 hn         1 LV4       0.317500
     19 H5           1.3840    -3.9330     0.2050 ha         1 LV4       0.128000
     20 H6          -1.0950    -3.8840    -0.0030 ha         1 LV4       0.123000
     21 H7          -2.3010    -1.7410    -0.0070 ha         1 LV4       0.136000
     22 O           -1.1190     0.7320     0.1940 os         1 LV4      -0.412100
@<TRIPOS>BOND
     1     1     4 1   
     2     1    15 1   
     3     1    16 1   
     4     2     3 ar  
     5     2     6 1   
     6     2    10 ar  
     7     3     7 ar  
     8     3    17 1   
     9     4     6 1   
    10     4    14 2   
    11     5    11 1   
    12     5    12 1   
    13     5    13 1   
    14     5    22 1   
    15     6    18 1   
    16     7     8 ar  
    17     7    19 1   
    18     8     9 ar  
    19     8    20 1   
    20     9    10 ar  
    21     9    21 1   
    22    10    22 1   
@<TRIPOS>SUBSTRUCTURE
     1 LV4         1 TEMP              0 ****  ****    0 ROOT
