@<TRIPOS>MOLECULE
LV5
   14    14     1     0     0
SMALL
No Charge or Current Charge


@<TRIPOS>ATOM
      1 C01         47.6530    10.2030    39.7990 ca         1 LV5      -0.177000
      2 C02         46.3990    10.1440    40.4350 ca         1 LV5      -0.052000
      3 C03         45.2280    10.4000    39.7010 ca         1 LV5       0.068000
      4 C04         45.3180    10.7150    38.3290 ca         1 LV5       0.166000
      5 C05         46.5730    10.7720    37.7010 ca         1 LV5      -0.177000
      6 C06         47.7390    10.5160    38.4350 ca         1 LV5       0.312000
      7 N07         48.9590    10.5710    37.8220 nv         1 LV5      -1.076000
      8 Cl1         43.8710    11.0430    37.3750 cl         1 LV5      -0.179000
      9 Cl2         43.6670    10.3210    40.5210 cl         1 LV5      -0.179000
     10 H1          48.5560    10.0050    40.3720 ha         1 LV5       0.120000
     11 H2          46.3350     9.9020    41.4930 ha         1 LV5       0.129000
     12 H3          46.6350    11.0160    36.6440 ha         1 LV5       0.130000
     13 H4          49.7890    10.2470    38.3160 hn         1 LV5       0.458000
     14 H5          49.0190    10.6520    36.8080 hn         1 LV5       0.458000
@<TRIPOS>BOND
     1     1     2 ar  
     2     1     6 ar  
     3     1    10 1   
     4     2     3 ar  
     5     2    11 1   
     6     3     4 ar  
     7     3     9 1   
     8     4     5 ar  
     9     4     8 1   
    10     5     6 ar  
    11     5    12 1   
    12     6     7 1   
    13     7    13 1   
    14     7    14 1   
@<TRIPOS>SUBSTRUCTURE
     1 LV5         1 TEMP              0 ****  ****    0 ROOT
