@<TRIPOS>MOLECULE
LV5
   14    14     1     0     0
SMALL
abcg2


@<TRIPOS>ATOM
      1 C01         47.6370    10.2200    39.7980 ca         1 LV5      -0.177000
      2 C02         46.4000    10.1510    40.4090 ca         1 LV5      -0.052000
      3 C03         45.2370    10.3970    39.6930 ca         1 LV5       0.068000
      4 C04         45.3380    10.7120    38.3440 ca         1 LV5       0.166000
      5 C05         46.5710    10.7830    37.7200 ca         1 LV5      -0.177000
      6 C06         47.7470    10.5400    38.4380 ca         1 LV5       0.312000
      7 N07         48.9730    10.6630    37.8380 nv         1 LV5      -1.076000
      8 CL1         43.9180    11.0200    37.4130 cl         1 LV5      -0.179000
      9 CL2         43.7020    10.3030    40.4790 cl         1 LV5      -0.179000
     10 H1          48.5290    10.0240    40.3800 ha         1 LV5       0.120000
     11 H2          46.3370     9.9030    41.4600 ha         1 LV5       0.129000
     12 H3          46.6220    11.0280    36.6660 ha         1 LV5       0.130000
     13 H4          49.7370    10.1790    38.2790 hn         1 LV5       0.458000
     14 H5          48.9940    10.5840    36.8340 hn         1 LV5       0.458000
@<TRIPOS>BOND
     1     1     2 ar  
     2     1     6 ar  
     3     1    10 1   
     4     2     3 ar  
     5     2    11 1   
     6     3     4 ar  
     7     3     9 1   
     8     4     5 ar  
     9     4     8 1   
    10     5     6 ar  
    11     5    12 1   
    12     6     7 1   
    13     7    13 1   
    14     7    14 1   
@<TRIPOS>SUBSTRUCTURE
     1 LV5         1 TEMP              0 ****  ****    0 ROOT
