@<TRIPOS>MOLECULE
LV7
   25    25     1     0     0
SMALL
No Charge or Current Charge


@<TRIPOS>ATOM
      1 N1         -18.3610    -7.1360    -2.1320 ns         1 LV7      -0.403300
      2 C4         -21.5310    -3.1970    -2.9620 ca         1 LV7      -0.070000
      3 C5         -21.5950    -4.3500    -2.1740 ca         1 LV7      -0.134000
      4 C6         -20.5770    -5.3130    -2.2480 ca         1 LV7      -0.071000
      5 C7         -19.4610    -5.1340    -3.1080 ca         1 LV7      -0.192600
      6 C8         -18.3820    -6.2110    -3.1820 c          1 LV7       0.638700
      7 C          -17.8030    -1.2990    -4.2800 c3         1 LV7      -0.180100
      8 O          -16.9020    -2.5490    -6.1230 o          1 LV7      -0.581100
      9 C1         -17.6490    -2.5490    -5.1520 c          1 LV7       0.610100
     10 C2         -19.3890    -3.9410    -3.8840 ca         1 LV7       0.028000
     11 C3         -20.4380    -2.9990    -3.8160 ca         1 LV7      -0.148000
     12 N2         -17.4340    -8.2630    -2.0130 n8         1 LV7      -0.716200
     13 O1         -17.5920    -6.3010    -4.1150 o          1 LV7      -0.569100
     14 H1         -19.0420    -6.9800    -1.3900 hn         1 LV7       0.303500
     15 H2         -22.3310    -2.4600    -2.9180 ha         1 LV7       0.119000
     16 H3         -22.4460    -4.5090    -1.5140 ha         1 LV7       0.121000
     17 H4         -20.6870    -6.2090    -1.6430 ha         1 LV7       0.116000
     18 H5         -17.9690    -4.5420    -5.2320 hn         1 LV7       0.188000
     19 H6         -16.9160    -0.6590    -4.3390 hc         1 LV7       0.062367
     20 H7         -18.6620    -0.7250    -4.6430 hc         1 LV7       0.062367
     21 H8         -18.0520    -1.5640    -3.2460 hc         1 LV7       0.062367
     22 H9         -20.4290    -2.1120    -4.4430 ha         1 LV7       0.126000
     23 H10        -16.8650    -8.1960    -1.1560 hn         1 LV7       0.398000
     24 H11        -17.9370    -9.1620    -1.9620 hn         1 LV7       0.398000
     25 N          -18.2880    -3.7110    -4.7500 ns         1 LV7      -0.172000
@<TRIPOS>BOND
     1     1     6 1   
     2     1    12 1   
     3     1    14 1   
     4     2     3 ar  
     5     2    11 ar  
     6     2    15 1   
     7     3     4 ar  
     8     3    16 1   
     9     4     5 ar  
    10     4    17 1   
    11     5     6 1   
    12     5    10 ar  
    13     6    13 2   
    14     7     9 1   
    15     7    19 1   
    16     7    20 1   
    17     7    21 1   
    18     8     9 2   
    19     9    25 1   
    20    10    11 ar  
    21    10    25 1   
    22    11    22 1   
    23    12    23 1   
    24    12    24 1   
    25    18    25 1   
@<TRIPOS>SUBSTRUCTURE
     1 LV7         1 TEMP              0 ****  ****    0 ROOT
