@<TRIPOS>MOLECULE
LV7
   25    25     1     0     0
SMALL
abcg2


@<TRIPOS>ATOM
      1 N1         -18.2330    -6.8300    -2.1830 ns         1 LV7      -0.403300
      2 C4         -21.5490    -3.1930    -2.9940 ca         1 LV7      -0.070000
      3 C5         -21.6820    -4.3610    -2.2600 ca         1 LV7      -0.134000
      4 C6         -20.7180    -5.3500    -2.3770 ca         1 LV7      -0.071000
      5 C7         -19.6140    -5.1840    -3.2090 ca         1 LV7      -0.192600
      6 C8         -18.6110    -6.2860    -3.3500 c          1 LV7       0.638700
      7 C          -17.7680    -1.5740    -4.0190 c3         1 LV7      -0.180100
      8 O          -16.6810    -2.7600    -5.7760 o          1 LV7      -0.581100
      9 C1         -17.5690    -2.7500    -4.9390 c          1 LV7       0.610100
     10 C2         -19.4850    -4.0010    -3.9520 ca         1 LV7       0.028000
     11 C3         -20.4680    -3.0220    -3.8450 ca         1 LV7      -0.148000
     12 N2         -17.3450    -7.8890    -2.1440 n8         1 LV7      -0.716200
     13 O1         -18.1970    -6.6420    -4.4440 o          1 LV7      -0.569100
     14 H1         -18.5420    -6.4110    -1.3170 hn         1 LV7       0.303500
     15 H2         -22.2990    -2.4170    -2.9270 ha         1 LV7       0.119000
     16 H3         -22.5340    -4.5080    -1.6090 ha         1 LV7       0.121000
     17 H4         -20.8350    -6.2720    -1.8200 ha         1 LV7       0.116000
     18 H5         -18.1120    -4.6440    -5.3380 hn         1 LV7       0.188000
     19 H6         -16.8070    -1.0850    -3.8740 hc         1 LV7       0.062367
     20 H7         -18.4380    -0.8450    -4.4750 hc         1 LV7       0.062367
     21 H8         -18.1800    -1.8450    -3.0490 hc         1 LV7       0.062367
     22 H9         -20.4010    -2.1250    -4.4450 ha         1 LV7       0.126000
     23 H10        -16.5130    -7.6030    -1.6430 hn         1 LV7       0.398000
     24 H11        -17.7660    -8.6470    -1.6230 hn         1 LV7       0.398000
     25 N          -18.3930    -3.8260    -4.8120 ns         1 LV7      -0.172000
@<TRIPOS>BOND
     1     1     6 1   
     2     1    12 1   
     3     1    14 1   
     4     2     3 ar  
     5     2    11 ar  
     6     2    15 1   
     7     3     4 ar  
     8     3    16 1   
     9     4     5 ar  
    10     4    17 1   
    11     5     6 1   
    12     5    10 ar  
    13     6    13 2   
    14     7     9 1   
    15     7    19 1   
    16     7    20 1   
    17     7    21 1   
    18     8     9 2   
    19     9    25 1   
    20    10    11 ar  
    21    10    25 1   
    22    11    22 1   
    23    12    23 1   
    24    12    24 1   
    25    18    25 1   
@<TRIPOS>SUBSTRUCTURE
     1 LV7         1 TEMP              0 ****  ****    0 ROOT
