@<TRIPOS>MOLECULE
LV8
   19    18     1     0     0
SMALL
No Charge or Current Charge


@<TRIPOS>ATOM
      1 N           -0.9650     1.9250    -0.2830 n8         1 LV8      -0.910800
      2 CA          -1.0140     0.4150    -0.4690 c3         1 LV8      -0.009500
      3 CB           0.1240    -0.2870     0.3120 c3         1 LV8       0.115000
      4 NG           1.4320     0.2980     0.0010 ns         1 LV8      -0.552900
      5 CD           2.6370    -0.3450     0.1330 c          1 LV8       0.655100
      6 OD2          2.7250    -1.4950     0.5400 o          1 LV8      -0.645100
      7 CE           3.8520     0.4860    -0.2640 c3         1 LV8      -0.179100
      8 C           -2.3830    -0.3160    -0.1490 c          1 LV8       0.909600
      9 O           -2.9160    -0.1190     0.9390 o          1 LV8      -0.831800
     10 OXT         -2.9240    -0.9660    -1.0380 o          1 LV8      -0.831800
     11 H1          -1.6910     2.3610    -0.8620 hn         1 LV8       0.334300
     12 H2          -1.2500     2.1480     0.6770 hn         1 LV8       0.334300
     13 H4          -0.8200     0.2350    -1.5350 h1         1 LV8       0.041700
     14 H5          -0.0550    -0.1960     1.3920 h1         1 LV8       0.055200
     15 H6           0.1310    -1.3550     0.0550 h1         1 LV8       0.055200
     16 H7           1.4490     1.2520    -0.3380 hn         1 LV8       0.325500
     17 H8           3.7200     0.8450    -1.2920 hc         1 LV8       0.044367
     18 H9           3.8500     1.4200     0.3090 hc         1 LV8       0.044367
     19 H10          4.7960    -0.0590    -0.1450 hc         1 LV8       0.044367
@<TRIPOS>BOND
     1     1     2 1   
     2     1    11 1   
     3     1    12 1   
     4     2     3 1   
     5     2     8 1   
     6     2    13 1   
     7     3     4 1   
     8     3    14 1   
     9     3    15 1   
    10     4     5 1   
    11     4    16 1   
    12     5     6 2   
    13     5     7 1   
    14     7    17 1   
    15     7    18 1   
    16     7    19 1   
    17     8     9 1   
    18     8    10 1   
@<TRIPOS>SUBSTRUCTURE
     1 LV8         1 TEMP              0 ****  ****    0 ROOT
