@<TRIPOS>MOLECULE
LV8
   19    18     1     0     0
SMALL
bcc


@<TRIPOS>ATOM
      1 N           -0.8770     1.8520     0.0310 n8         1 LV8      -0.910800
      2 CA          -1.0070     0.4750    -0.4180 c3         1 LV8      -0.009500
      3 CB           0.1200    -0.3630     0.1880 c3         1 LV8       0.115000
      4 NG           1.3890     0.2850    -0.0490 ns         1 LV8      -0.552900
      5 CD           2.5680    -0.3440    -0.0710 c          1 LV8       0.655100
      6 OD2          2.6860    -1.5560     0.0870 o          1 LV8      -0.645100
      7 CE           3.7700     0.5370    -0.3160 c3         1 LV8      -0.179100
      8 C           -2.3630    -0.2140    -0.1170 c          1 LV8       0.909600
      9 O           -3.1840     0.4110     0.5800 o          1 LV8      -0.831800
     10 OXT         -2.5030    -1.3570    -0.5970 o          1 LV8      -0.831800
     11 H1          -1.4490     2.4500    -0.5520 hn         1 LV8       0.334300
     12 H2          -1.2840     1.9250     0.9570 hn         1 LV8       0.334300
     13 H4          -0.8640     0.4700    -1.5040 h1         1 LV8       0.041700
     14 H5          -0.0490    -0.4890     1.2650 h1         1 LV8       0.055200
     15 H6           0.1230    -1.3550    -0.2560 h1         1 LV8       0.055200
     16 H7           1.3450     1.2920    -0.1100 hn         1 LV8       0.325500
     17 H8           4.2780     0.2110    -1.2240 hc         1 LV8       0.044367
     18 H9           3.5240     1.5920    -0.4200 hc         1 LV8       0.044367
     19 H10          4.4760     0.4260     0.5070 hc         1 LV8       0.044367
@<TRIPOS>BOND
     1     1     2 1   
     2     1    11 1   
     3     1    12 1   
     4     2     3 1   
     5     2     8 1   
     6     2    13 1   
     7     3     4 1   
     8     3    14 1   
     9     3    15 1   
    10     4     5 1   
    11     4    16 1   
    12     5     6 2   
    13     5     7 1   
    14     7    17 1   
    15     7    18 1   
    16     7    19 1   
    17     8     9 1   
    18     8    10 1   
@<TRIPOS>SUBSTRUCTURE
     1 LV8         1 TEMP              0 ****  ****    0 ROOT
