@<TRIPOS>MOLECULE
LV9
   44    46     1     0     0
SMALL
abcg2


@<TRIPOS>ATOM
      1 N1           7.2580     1.5020    17.3080 nb         1 LV9      -0.644000
      2 C4           5.9410     1.4890    17.0950 ca         1 LV9       0.302900
      3 C5           7.7350     1.0130    18.4550 ca         1 LV9       0.316900
      4 C6           9.9750    -0.7660    23.1930 c6         1 LV9       0.160400
      5 C7          10.9600    -1.6590    22.3890 c3         1 LV9      -0.047100
      6 C8          12.2900    -1.9390    23.0370 ca         1 LV9      -0.079300
      7 C10         13.6990    -3.3100    24.4600 ca         1 LV9      -0.109000
      8 C13         13.3830    -1.0970    22.8180 ca         1 LV9      -0.106500
      9 C15          8.7060    -0.5360    25.3870 c6         1 LV9       0.156100
     10 C17         10.5740     0.6070    23.5440 c6         1 LV9      -0.124900
     11 N2           8.7430    -0.6160    22.4000 ns         1 LV9      -0.529900
     12 C11         14.7750    -2.4550    24.2430 ca         1 LV9      -0.108000
     13 C1           6.9080     0.4860    19.4580 ca         1 LV9      -0.054000
     14 O1           9.3560     0.7030    25.6560 os         1 LV9      -0.456000
     15 C2           5.5290     0.4780    19.2180 ca         1 LV9      -0.142000
     16 C16          9.6530     1.4090    24.4500 c6         1 LV9       0.156100
     17 C9          12.4710    -3.0530    23.8600 ca         1 LV9      -0.106500
     18 C12         14.6130    -1.3470    23.4160 ca         1 LV9      -0.109000
     19 C14          9.5630    -1.4420    24.5110 c6         1 LV9      -0.124900
     20 C            8.6380     0.0160    21.2020 c          1 LV9       0.664100
     21 O            9.5660     0.6020    20.6470 o          1 LV9      -0.626100
     22 C3           5.0430     0.9830    18.0270 ca         1 LV9      -0.133000
     23 H1           5.5930     1.8950    16.1510 h4         1 LV9       0.022100
     24 H2           8.8040     1.0370    18.5940 h4         1 LV9       0.055100
     25 H3          11.1230    -1.1720    21.4280 hc         1 LV9       0.062700
     26 H4          10.4420    -2.6010    22.1970 hc         1 LV9       0.062700
     27 H5          13.8160    -4.1800    25.0940 ha         1 LV9       0.113500
     28 H6          13.2670    -0.2360    22.1700 ha         1 LV9       0.112000
     29 H7           7.7330    -0.3410    24.9170 h1         1 LV9       0.046200
     30 H8           8.5240    -1.0060    26.3530 h1         1 LV9       0.046200
     31 H9          11.5180     0.4420    24.0640 hc         1 LV9       0.068700
     32 H10         10.7850     1.1710    22.6360 hc         1 LV9       0.068700
     33 H11          6.6440    -0.4670    21.2360 hn         1 LV9       0.143000
     34 H12          7.9500    -1.1520    22.7150 hn         1 LV9       0.305500
     35 H13         15.7330    -2.6540    24.7080 ha         1 LV9       0.113000
     36 H14          4.8550     0.0770    19.9660 ha         1 LV9       0.112000
     37 H15         10.1290     2.3420    24.7510 h1         1 LV9       0.046200
     38 H16          8.7160     1.6510    23.9310 h1         1 LV9       0.046200
     39 H17         11.6420    -3.7300    24.0260 ha         1 LV9       0.112000
     40 H18         15.4470    -0.6800    23.2330 ha         1 LV9       0.113500
     41 H19          9.0260    -2.3720    24.3030 hc         1 LV9       0.068700
     42 H20         10.4690    -1.7040    25.0570 hc         1 LV9       0.068700
     43 H21          3.9800     0.9840    17.8220 ha         1 LV9       0.122000
     44 N            7.3620    -0.0490    20.6630 ns         1 LV9      -0.166000
@<TRIPOS>BOND
     1     1     2 ar  
     2     1     3 ar  
     3     2    22 ar  
     4     2    23 1   
     5     3    13 ar  
     6     3    24 1   
     7     4     5 1   
     8     4    10 1   
     9     4    11 1   
    10     4    19 1   
    11     5     6 1   
    12     5    25 1   
    13     5    26 1   
    14     6     8 ar  
    15     6    17 ar  
    16     7    12 ar  
    17     7    17 ar  
    18     7    27 1   
    19     8    18 ar  
    20     8    28 1   
    21     9    14 1   
    22     9    19 1   
    23     9    29 1   
    24     9    30 1   
    25    10    16 1   
    26    10    31 1   
    27    10    32 1   
    28    11    20 1   
    29    11    34 1   
    30    12    18 ar  
    31    12    35 1   
    32    13    15 ar  
    33    13    44 1   
    34    14    16 1   
    35    15    22 ar  
    36    15    36 1   
    37    16    37 1   
    38    16    38 1   
    39    17    39 1   
    40    18    40 1   
    41    19    41 1   
    42    19    42 1   
    43    20    21 2   
    44    20    44 1   
    45    22    43 1   
    46    33    44 1   
@<TRIPOS>SUBSTRUCTURE
     1 LV9         1 TEMP              0 ****  ****    0 ROOT
