@<TRIPOS>MOLECULE
LV9
   44    46     1     0     0
SMALL
No Charge or Current Charge


@<TRIPOS>ATOM
      1 N1           6.9740     1.5130    17.1890 nb         1 LV9      -0.644000
      2 C4           5.6430     1.3190    17.0430 ca         1 LV9       0.302900
      3 C5           7.5520     1.1080    18.3480 ca         1 LV9       0.316900
      4 C6          10.0790    -0.6120    23.1450 c6         1 LV9       0.160400
      5 C7          11.1160    -1.4540    22.3140 c3         1 LV9      -0.047100
      6 C8          12.3710    -1.9090    23.0600 ca         1 LV9      -0.079300
      7 C10         13.5680    -3.5940    24.3620 ca         1 LV9      -0.109000
      8 C13         13.5140    -1.0850    23.1010 ca         1 LV9      -0.106500
      9 C15          8.7390    -0.5230    25.3480 c6         1 LV9       0.156100
     10 C17         10.6570     0.7690    23.5810 c6         1 LV9      -0.124900
     11 N2           8.8450    -0.4180    22.3530 ns         1 LV9      -0.529900
     12 C11         14.6980    -2.7610    24.4100 ca         1 LV9      -0.108000
     13 C1           6.8280     0.4940    19.4040 ca         1 LV9      -0.054000
     14 O1           9.3740     0.7340    25.6600 os         1 LV9      -0.456000
     15 C2           5.4450     0.2990    19.2340 ca         1 LV9      -0.142000
     16 C16          9.6770     1.5360    24.5000 c6         1 LV9       0.156100
     17 C9          12.4100    -3.1710    23.6860 ca         1 LV9      -0.106500
     18 C12         14.6710    -1.5080    23.7770 ca         1 LV9      -0.109000
     19 C14          9.6710    -1.3720    24.4470 c6         1 LV9      -0.124900
     20 C            8.7210     0.1240    21.0910 c          1 LV9       0.664100
     21 O            9.6530     0.6130    20.4720 o          1 LV9      -0.626100
     22 C3           4.8480     0.7190    18.0340 ca         1 LV9      -0.133000
     23 H1           5.2030     1.6530    16.1040 h4         1 LV9       0.022100
     24 H2           8.6230     1.2860    18.4130 h4         1 LV9       0.055100
     25 H3          11.4360    -0.8880    21.4330 hc         1 LV9       0.062700
     26 H4          10.6080    -2.3380    21.9100 hc         1 LV9       0.062700
     27 H5          13.5890    -4.5670    24.8480 ha         1 LV9       0.113500
     28 H6          13.5060    -0.1150    22.6090 ha         1 LV9       0.112000
     29 H7           7.7760    -0.3330    24.8530 h1         1 LV9       0.046200
     30 H8           8.5350    -1.0610    26.2860 h1         1 LV9       0.046200
     31 H9          11.5990     0.6290    24.1270 hc         1 LV9       0.068700
     32 H10         10.9010     1.3830    22.7050 hc         1 LV9       0.068700
     33 H11          6.7640    -0.3680    21.2660 hn         1 LV9       0.143000
     34 H12          7.9900    -0.7860    22.7480 hn         1 LV9       0.305500
     35 H13         15.5940    -3.0890    24.9330 ha         1 LV9       0.113000
     36 H14          4.8450    -0.1670    20.0130 ha         1 LV9       0.112000
     37 H15         10.1330     2.4800    24.8300 h1         1 LV9       0.046200
     38 H16          8.7460     1.7770    23.9650 h1         1 LV9       0.046200
     39 H17         11.5410    -3.8250    23.6530 ha         1 LV9       0.112000
     40 H18         15.5480    -0.8640    23.8080 ha         1 LV9       0.113500
     41 H19          9.1840    -2.3250    24.1980 hc         1 LV9       0.068700
     42 H20         10.5620    -1.6270    25.0350 hc         1 LV9       0.068700
     43 H21          3.7820     0.5860    17.8670 ha         1 LV9       0.122000
     44 N            7.4180     0.0620    20.6260 ns         1 LV9      -0.166000
@<TRIPOS>BOND
     1     1     2 ar  
     2     1     3 ar  
     3     2    22 ar  
     4     2    23 1   
     5     3    13 ar  
     6     3    24 1   
     7     4     5 1   
     8     4    10 1   
     9     4    11 1   
    10     4    19 1   
    11     5     6 1   
    12     5    25 1   
    13     5    26 1   
    14     6     8 ar  
    15     6    17 ar  
    16     7    12 ar  
    17     7    17 ar  
    18     7    27 1   
    19     8    18 ar  
    20     8    28 1   
    21     9    14 1   
    22     9    19 1   
    23     9    29 1   
    24     9    30 1   
    25    10    16 1   
    26    10    31 1   
    27    10    32 1   
    28    11    20 1   
    29    11    34 1   
    30    12    18 ar  
    31    12    35 1   
    32    13    15 ar  
    33    13    44 1   
    34    14    16 1   
    35    15    22 ar  
    36    15    36 1   
    37    16    37 1   
    38    16    38 1   
    39    17    39 1   
    40    18    40 1   
    41    19    41 1   
    42    19    42 1   
    43    20    21 2   
    44    20    44 1   
    45    22    43 1   
    46    33    44 1   
@<TRIPOS>SUBSTRUCTURE
     1 LV9         1 TEMP              0 ****  ****    0 ROOT
