@<TRIPOS>MOLECULE
LVA
   67    68     1     0     0
SMALL
abcg2


@<TRIPOS>ATOM
      1 O1          86.3000   127.1860   104.8970 o          1 LVA      -0.735500
      2 O2          87.2310   127.7130   109.5330 oh         1 LVA      -0.721000
      3 O3          85.8890   129.2080   105.7750 o          1 LVA      -0.735500
      4 O8          85.0200   127.1790   111.0240 oh         1 LVA      -0.706000
      5 O4          80.9920   127.1820   105.9860 os         1 LVA      -0.455100
      6 C5          78.0450   125.6900   108.6250 ce         1 LVA      -0.182000
      7 C6          78.4280   126.6330   107.5820 ce         1 LVA      -0.069200
      8 C7          84.3090   127.6040   109.8490 c3         1 LVA       0.174300
      9 C8          78.7180   125.5620   109.7730 c2         1 LVA      -0.206200
     10 C9          79.5870   127.5590   107.9000 c6         1 LVA      -0.013500
     11 C10         86.3610   128.0430   105.8160 c          1 LVA       0.706000
     12 C11         79.9630   126.3430   110.0880 c6         1 LVA      -0.031500
     13 C12         80.6290   126.8400   108.7850 c6         1 LVA      -0.043700
     14 C13         86.3860   128.0080   108.3920 c3         1 LVA       0.183300
     15 C14         77.7610   126.6860   106.4210 c2         1 LVA      -0.206200
     16 C15         80.1670   128.1910   106.6390 c6         1 LVA       0.177300
     17 C16         82.9310   126.9560   109.8930 c3         1 LVA      -0.077400
     18 C17         85.0850   127.2420   108.5820 c3         1 LVA      -0.107400
     19 C18         81.8910   127.6710   109.0310 c3         1 LVA      -0.074400
     20 C19         79.0800   128.6940   105.7020 c6         1 LVA      -0.087400
     21 C20         79.6550   127.4530   111.1080 c3         1 LVA      -0.080100
     22 C21         87.1060   127.6350   107.1020 c3         1 LVA      -0.231400
     23 C22         78.0610   127.6210   105.2890 c6         1 LVA      -0.015500
     24 C23         78.4720   126.8380   104.0300 c3         1 LVA      -0.083100
     25 C24         82.0570   127.5910   105.2910 c          1 LVA       0.580100
     26 C25         82.9000   126.4490   104.7670 c3         1 LVA      -0.129700
     27 O26         82.3120   128.7620   105.0880 o          1 LVA      -0.471000
     28 C27         82.4730   126.1510   103.3140 c3         1 LVA      -0.060400
     29 C28         82.8690   125.2120   105.6640 c3         1 LVA      -0.071100
     30 C29         83.4270   125.2050   102.5890 c3         1 LVA      -0.089100
     31 HO2         87.9810   128.3210   109.5240 ho         1 LVA       0.435000
     32 HO8         85.9560   127.3840   110.8560 ho         1 LVA       0.473000
     33 H5          77.1610   125.0880   108.4410 ha         1 LVA       0.164000
     34 H7          84.1880   128.6970   109.8860 h1         1 LVA       0.026700
     35 H8          78.3620   124.8730   110.5320 ha         1 LVA       0.164000
     36 H9          79.1890   128.4000   108.4810 hc         1 LVA       0.052700
     37 H11         80.6620   125.6540   110.5710 hc         1 LVA       0.055700
     38 H12         80.9400   125.9420   108.2430 hc         1 LVA       0.066700
     39 H13         86.1690   129.0800   108.3860 h1         1 LVA       0.049700
     40 H14         76.9410   125.9890   106.2640 ha         1 LVA       0.161000
     41 H15         80.8220   129.0180   106.9010 h1         1 LVA       0.073700
     42 H161        83.0240   125.9110   109.5770 hc         1 LVA       0.042700
     43 H162        82.6090   126.9410   110.9370 hc         1 LVA       0.042700
     44 H171        85.2920   126.1670   108.5940 hc         1 LVA       0.065200
     45 H172        84.4560   127.4400   107.7110 hc         1 LVA       0.065200
     46 H181        82.3450   127.9120   108.0690 hc         1 LVA       0.047200
     47 H182        81.6320   128.6300   109.4910 hc         1 LVA       0.047200
     48 H191        78.5620   129.4930   106.2370 hc         1 LVA       0.052200
     49 H192        79.5360   129.1460   104.8200 hc         1 LVA       0.052200
     50 H201        80.5670   127.9430   111.4520 hc         1 LVA       0.032033
     51 H202        78.9980   128.2130   110.6810 hc         1 LVA       0.032033
     52 H203        79.1520   127.0310   111.9800 hc         1 LVA       0.032033
     53 H211        87.3000   126.5610   107.0910 hc         1 LVA       0.030200
     54 H212        88.0750   128.1470   107.0910 hc         1 LVA       0.030200
     55 H22         77.1290   128.1410   105.0360 hc         1 LVA       0.036700
     56 H231        78.6510   127.5200   103.1960 hc         1 LVA       0.036700
     57 H232        79.3810   126.2630   104.2050 hc         1 LVA       0.036700
     58 H233        77.6810   126.1430   103.7380 hc         1 LVA       0.036700
     59 H25         83.9200   126.8420   104.7370 hc         1 LVA       0.150700
     60 H271        81.4640   125.7290   103.3190 hc         1 LVA       0.033700
     61 H272        82.4190   127.0960   102.7660 hc         1 LVA       0.033700
     62 H281        83.6210   124.4940   105.3360 hc         1 LVA       0.033700
     63 H282        83.0860   125.4740   106.6990 hc         1 LVA       0.033700
     64 H283        81.8940   124.7240   105.6330 hc         1 LVA       0.033700
     65 H291        83.1150   125.0680   101.5520 hc         1 LVA       0.034367
     66 H292        84.4440   125.6060   102.5860 hc         1 LVA       0.034367
     67 H293        83.4560   124.2210   103.0590 hc         1 LVA       0.034367
@<TRIPOS>BOND
     1     1    11 1   
     2     2    14 1   
     3     2    31 1   
     4     3    11 1   
     5     4     8 1   
     6     4    32 1   
     7     5    16 1   
     8     5    25 1   
     9     6     7 1   
    10     6     9 2   
    11     6    33 1   
    12     7    10 1   
    13     7    15 2   
    14     8    17 1   
    15     8    18 1   
    16     8    34 1   
    17     9    12 1   
    18     9    35 1   
    19    10    13 1   
    20    10    16 1   
    21    10    36 1   
    22    11    22 1   
    23    12    13 1   
    24    12    21 1   
    25    12    37 1   
    26    13    19 1   
    27    13    38 1   
    28    14    18 1   
    29    14    22 1   
    30    14    39 1   
    31    15    23 1   
    32    15    40 1   
    33    16    20 1   
    34    16    41 1   
    35    17    19 1   
    36    17    42 1   
    37    17    43 1   
    38    18    44 1   
    39    18    45 1   
    40    19    46 1   
    41    19    47 1   
    42    20    23 1   
    43    20    48 1   
    44    20    49 1   
    45    21    50 1   
    46    21    51 1   
    47    21    52 1   
    48    22    53 1   
    49    22    54 1   
    50    23    24 1   
    51    23    55 1   
    52    24    56 1   
    53    24    57 1   
    54    24    58 1   
    55    25    26 1   
    56    25    27 2   
    57    26    28 1   
    58    26    29 1   
    59    26    59 1   
    60    28    30 1   
    61    28    60 1   
    62    28    61 1   
    63    29    62 1   
    64    29    63 1   
    65    29    64 1   
    66    30    65 1   
    67    30    66 1   
    68    30    67 1   
@<TRIPOS>SUBSTRUCTURE
     1 LVA         1 TEMP              0 ****  ****    0 ROOT
