@<TRIPOS>MOLECULE
LVA
   67    68     1     0     0
SMALL
No Charge or Current Charge


@<TRIPOS>ATOM
      1 O1          86.0200   128.9470   105.7840 o          1 LVA      -0.735500
      2 O2          87.4190   127.3860   109.7800 oh         1 LVA      -0.721000
      3 O3          87.0050   130.5440   106.8380 o          1 LVA      -0.735500
      4 O8          85.1450   126.6010   110.9140 oh         1 LVA      -0.706000
      5 O4          81.0170   127.1660   105.7630 os         1 LVA      -0.455100
      6 C5          77.9020   125.8070   108.4720 ce         1 LVA      -0.182000
      7 C6          78.3470   126.7650   107.4480 ce         1 LVA      -0.069200
      8 C7          84.3900   127.3440   109.9610 c3         1 LVA       0.174300
      9 C8          78.5930   125.5330   109.5980 c2         1 LVA      -0.206200
     10 C9          79.6280   127.5720   107.7760 c6         1 LVA      -0.013500
     11 C10         86.7710   129.3600   106.6530 c          1 LVA       0.706000
     12 C11         79.9110   126.2050   109.9420 c6         1 LVA      -0.031500
     13 C12         80.6260   126.7250   108.6480 c6         1 LVA      -0.043700
     14 C13         86.6250   128.1670   108.8770 c3         1 LVA       0.183300
     15 C14         77.6320   126.9600   106.3160 c2         1 LVA      -0.206200
     16 C15         80.2690   128.1700   106.4850 c6         1 LVA       0.177300
     17 C16         83.0240   126.6380   109.7520 c3         1 LVA      -0.077400
     18 C17         85.2470   127.4760   108.6740 c3         1 LVA      -0.107400
     19 C18         81.9870   127.4560   108.9370 c3         1 LVA      -0.074400
     20 C19         79.1830   128.8600   105.6140 c6         1 LVA      -0.087400
     21 C20         79.6340   127.2970   111.0170 c3         1 LVA      -0.080100
     22 C21         87.4440   128.3420   107.5800 c3         1 LVA      -0.231400
     23 C22         78.0310   127.9100   105.1940 c6         1 LVA      -0.015500
     24 C23         78.3580   127.0770   103.9270 c3         1 LVA      -0.083100
     25 C24         81.9570   127.5160   104.8290 c          1 LVA       0.580100
     26 C25         82.7320   126.2980   104.2980 c3         1 LVA      -0.129700
     27 O26         82.1830   128.6640   104.4740 o          1 LVA      -0.471000
     28 C27         81.8010   125.3310   103.5160 c3         1 LVA      -0.060400
     29 C28         83.5080   125.6010   105.4450 c3         1 LVA      -0.071100
     30 C29         82.5420   124.2270   102.7310 c3         1 LVA      -0.089100
     31 HO2         88.3440   127.7060   109.6850 ho         1 LVA       0.435000
     32 HO8         86.0890   126.7770   110.6380 ho         1 LVA       0.473000
     33 H5          76.9610   125.2870   108.2800 ha         1 LVA       0.164000
     34 H7          84.2010   128.3520   110.3540 h1         1 LVA       0.026700
     35 H8          78.2160   124.8040   110.3180 ha         1 LVA       0.164000
     36 H9          79.3090   128.4320   108.3790 hc         1 LVA       0.052700
     37 H11         80.5480   125.4500   110.4230 hc         1 LVA       0.055700
     38 H12         80.8970   125.8380   108.0580 hc         1 LVA       0.066700
     39 H13         86.4510   129.1630   109.3080 h1         1 LVA       0.049700
     40 H14         76.7190   126.3900   106.1410 ha         1 LVA       0.161000
     41 H15         80.9790   128.9490   106.8020 h1         1 LVA       0.073700
     42 H161        83.1870   125.6700   109.2630 hc         1 LVA       0.042700
     43 H162        82.6040   126.4240   110.7420 hc         1 LVA       0.042700
     44 H171        85.4000   126.4830   108.2350 hc         1 LVA       0.065200
     45 H172        84.6780   128.0560   107.9410 hc         1 LVA       0.065200
     46 H181        82.4580   127.7160   107.9850 hc         1 LVA       0.047200
     47 H182        81.8030   128.4090   109.4480 hc         1 LVA       0.047200
     48 H191        78.7550   129.6850   106.1990 hc         1 LVA       0.052200
     49 H192        79.6300   129.3350   104.7310 hc         1 LVA       0.052200
     50 H201        80.5580   127.7720   111.3650 hc         1 LVA       0.032033
     51 H202        78.9720   128.0840   110.6390 hc         1 LVA       0.032033
     52 H203        79.1500   126.8600   111.8980 hc         1 LVA       0.032033
     53 H211        87.5040   127.3570   107.1010 hc         1 LVA       0.030200
     54 H212        88.4170   128.7360   107.8990 hc         1 LVA       0.030200
     55 H22         77.1610   128.5270   104.9310 hc         1 LVA       0.036700
     56 H231        78.7100   127.7150   103.1070 hc         1 LVA       0.036700
     57 H232        79.1280   126.3260   104.1270 hc         1 LVA       0.036700
     58 H233        77.4690   126.5430   103.5700 hc         1 LVA       0.036700
     59 H25         83.4680   126.7050   103.5940 hc         1 LVA       0.150700
     60 H271        81.0920   124.8600   104.2080 hc         1 LVA       0.033700
     61 H272        81.2070   125.9140   102.8020 hc         1 LVA       0.033700
     62 H281        84.1820   124.8290   105.0570 hc         1 LVA       0.033700
     63 H282        84.1190   126.3310   105.9900 hc         1 LVA       0.033700
     64 H283        82.8200   125.1320   106.1590 hc         1 LVA       0.033700
     65 H291        81.8290   123.6380   102.1420 hc         1 LVA       0.034367
     66 H292        83.2750   124.6640   102.0420 hc         1 LVA       0.034367
     67 H293        83.0650   123.5420   103.4090 hc         1 LVA       0.034367
@<TRIPOS>BOND
     1     1    11 1   
     2     2    14 1   
     3     2    31 1   
     4     3    11 1   
     5     4     8 1   
     6     4    32 1   
     7     5    16 1   
     8     5    25 1   
     9     6     7 1   
    10     6     9 2   
    11     6    33 1   
    12     7    10 1   
    13     7    15 2   
    14     8    17 1   
    15     8    18 1   
    16     8    34 1   
    17     9    12 1   
    18     9    35 1   
    19    10    13 1   
    20    10    16 1   
    21    10    36 1   
    22    11    22 1   
    23    12    13 1   
    24    12    21 1   
    25    12    37 1   
    26    13    19 1   
    27    13    38 1   
    28    14    18 1   
    29    14    22 1   
    30    14    39 1   
    31    15    23 1   
    32    15    40 1   
    33    16    20 1   
    34    16    41 1   
    35    17    19 1   
    36    17    42 1   
    37    17    43 1   
    38    18    44 1   
    39    18    45 1   
    40    19    46 1   
    41    19    47 1   
    42    20    23 1   
    43    20    48 1   
    44    20    49 1   
    45    21    50 1   
    46    21    51 1   
    47    21    52 1   
    48    22    53 1   
    49    22    54 1   
    50    23    24 1   
    51    23    55 1   
    52    24    56 1   
    53    24    57 1   
    54    24    58 1   
    55    25    26 1   
    56    25    27 2   
    57    26    28 1   
    58    26    29 1   
    59    26    59 1   
    60    28    30 1   
    61    28    60 1   
    62    28    61 1   
    63    29    62 1   
    64    29    63 1   
    65    29    64 1   
    66    30    65 1   
    67    30    66 1   
    68    30    67 1   
@<TRIPOS>SUBSTRUCTURE
     1 LVA         1 TEMP              0 ****  ****    0 ROOT
