@<TRIPOS>MOLECULE
LVB
   30    31     1     0     0
SMALL
abcg2


@<TRIPOS>ATOM
      1 C1          21.3140    42.8430    42.8530 ca         1 LVB       0.259100
      2 C2          21.5690    43.8840    41.9540 ca         1 LVB      -0.192000
      3 C3          21.5900    43.6610    40.5990 ca         1 LVB       0.013000
      4 C4          21.3450    42.3870    40.0660 ca         1 LVB      -0.224600
      5 C5          21.0650    41.3520    40.9370 ca         1 LVB       0.043000
      6 C6          21.0640    41.5640    42.3110 ca         1 LVB      -0.312200
      7 O10         20.5990    39.3590    42.6780 o          1 LVB      -0.407000
      8 N9          20.7880    40.4410    43.1680 no         1 LVB       0.706200
      9 O11         20.7570    40.6350    44.3760 o          1 LVB      -0.407000
     10 O8          21.3250    43.1360    44.1390 oh         1 LVB      -0.514100
     11 C12         21.2970    42.1230    38.6040 c          1 LVB       0.602300
     12 O13         20.5840    41.2410    38.1670 o          1 LVB      -0.512100
     13 C14         22.1250    42.9510    37.6950 ca         1 LVB      -0.178600
     14 C15         21.6750    43.1890    36.3960 ca         1 LVB      -0.062500
     15 C16         22.4440    43.9260    35.5130 ca         1 LVB      -0.123500
     16 C17         23.6920    44.4240    35.8870 ca         1 LVB      -0.045300
     17 C20         24.5110    45.2440    34.9370 c3         1 LVB      -0.053800
     18 C18         24.1480    44.1580    37.1770 ca         1 LVB      -0.123500
     19 C19         23.3750    43.4400    38.0740 ca         1 LVB      -0.062500
     20 H1          21.7470    44.8750    42.3500 ha         1 LVB       0.146000
     21 H2          21.7750    44.4990    39.9410 ha         1 LVB       0.134000
     22 H3          20.8560    40.3650    40.5480 ha         1 LVB       0.166000
     23 H4          21.1200    42.3320    44.6530 ho         1 LVB       0.523000
     24 H5          20.7130    42.8070    36.0800 ha         1 LVB       0.124000
     25 H6          22.0710    44.1130    34.5130 ha         1 LVB       0.118000
     26 H7          24.3080    46.3080    35.0780 hc         1 LVB       0.047367
     27 H8          25.5780    45.0940    35.0960 hc         1 LVB       0.047367
     28 H9          24.2810    45.0050    33.9000 hc         1 LVB       0.047367
     29 H10         25.1230    44.5170    37.4830 ha         1 LVB       0.118000
     30 H11         23.7680    43.2380    39.0630 ha         1 LVB       0.124000
@<TRIPOS>BOND
     1     1     2 ar  
     2     1     6 ar  
     3     1    10 1   
     4     2     3 ar  
     5     2    20 1   
     6     3     4 ar  
     7     3    21 1   
     8     4     5 ar  
     9     4    11 1   
    10     5     6 ar  
    11     5    22 1   
    12     6     8 1   
    13     7     8 1   
    14     8     9 1   
    15    10    23 1   
    16    11    12 2   
    17    11    13 1   
    18    13    14 ar  
    19    13    19 ar  
    20    14    15 ar  
    21    14    24 1   
    22    15    16 ar  
    23    15    25 1   
    24    16    17 1   
    25    16    18 ar  
    26    17    26 1   
    27    17    27 1   
    28    17    28 1   
    29    18    19 ar  
    30    18    29 1   
    31    19    30 1   
@<TRIPOS>SUBSTRUCTURE
     1 LVB         1 TEMP              0 ****  ****    0 ROOT
