@<TRIPOS>MOLECULE
LVB
   30    31     1     0     0
SMALL
No Charge or Current Charge


@<TRIPOS>ATOM
      1 C1          21.3190    42.8560    42.8490 ca         1 LVB       0.259100
      2 C2          21.5240    43.9070    41.9460 ca         1 LVB      -0.192000
      3 C3          21.4970    43.6850    40.5630 ca         1 LVB       0.013000
      4 C4          21.2720    42.3870    40.0650 ca         1 LVB      -0.224600
      5 C5          21.0470    41.3290    40.9680 ca         1 LVB       0.043000
      6 C6          21.0730    41.5460    42.3690 ca         1 LVB      -0.312200
      7 O10         20.6360    39.2730    42.7790 o          1 LVB      -0.407000
      8 N9          20.8390    40.3830    43.2840 no         1 LVB       0.706200
      9 O11         20.8600    40.5800    44.5060 o          1 LVB      -0.407000
     10 O8          21.3600    43.1530    44.1770 oh         1 LVB      -0.514100
     11 C12         21.2220    42.1240    38.5800 c          1 LVB       0.602300
     12 O13         20.4850    41.2530    38.1330 o          1 LVB      -0.512100
     13 C14         22.0910    42.9430    37.6530 ca         1 LVB      -0.178600
     14 C15         21.6530    43.2190    36.3400 ca         1 LVB      -0.062500
     15 C16         22.4560    43.9690    35.4630 ca         1 LVB      -0.123500
     16 C17         23.7120    44.4440    35.8780 ca         1 LVB      -0.045300
     17 C20         24.5780    45.2570    34.9280 c3         1 LVB      -0.053800
     18 C18         24.1600    44.1590    37.1800 ca         1 LVB      -0.123500
     19 C19         23.3610    43.4100    38.0610 ca         1 LVB      -0.062500
     20 H1          21.7010    44.9110    42.3250 ha         1 LVB       0.146000
     21 H2          21.6390    44.5260    39.8860 ha         1 LVB       0.134000
     22 H3          20.8590    40.3320    40.5680 ha         1 LVB       0.166000
     23 H4          21.1940    42.3150    44.6670 ho         1 LVB       0.523000
     24 H5          20.6840    42.8590    35.9990 ha         1 LVB       0.124000
     25 H6          22.0980    44.1790    34.4580 ha         1 LVB       0.118000
     26 H7          24.3680    46.3290    35.0300 hc         1 LVB       0.047367
     27 H8          25.6450    45.1040    35.1300 hc         1 LVB       0.047367
     28 H9          24.3980    44.9780    33.8840 hc         1 LVB       0.047367
     29 H10         25.1330    44.5150    37.5110 ha         1 LVB       0.118000
     30 H11         23.7400    43.1850    39.0560 ha         1 LVB       0.124000
@<TRIPOS>BOND
     1     1     2 ar  
     2     1     6 ar  
     3     1    10 1   
     4     2     3 ar  
     5     2    20 1   
     6     3     4 ar  
     7     3    21 1   
     8     4     5 ar  
     9     4    11 1   
    10     5     6 ar  
    11     5    22 1   
    12     6     8 1   
    13     7     8 1   
    14     8     9 1   
    15    10    23 1   
    16    11    12 2   
    17    11    13 1   
    18    13    14 ar  
    19    13    19 ar  
    20    14    15 ar  
    21    14    24 1   
    22    15    16 ar  
    23    15    25 1   
    24    16    17 1   
    25    16    18 ar  
    26    17    26 1   
    27    17    27 1   
    28    17    28 1   
    29    18    19 ar  
    30    18    29 1   
    31    19    30 1   
@<TRIPOS>SUBSTRUCTURE
     1 LVB         1 TEMP              0 ****  ****    0 ROOT
