@<TRIPOS>MOLECULE
LVC
   22    22     1     0     0
SMALL
abcg2


@<TRIPOS>ATOM
      1 C02          4.3130     5.1950    17.1120 c          1 LVC       0.713600
      2 C04          4.1090     3.8120    17.7240 ca         1 LVC      -0.124600
      3 C05          3.0360     3.0070    17.3500 ca         1 LVC      -0.089000
      4 C06          2.8610     1.7440    17.8980 ca         1 LVC      -0.127000
      5 C07          3.7530     1.2480    18.8450 ca         1 LVC      -0.114300
      6 C08          3.5820    -0.1240    19.4190 c3         1 LVC      -0.116100
      7 C09          4.3360    -1.2080    18.6730 c          1 LVC       0.562100
      8 C10          4.2450    -2.5800    19.2830 c3         1 LVC      -0.205100
      9 C12          4.8230     2.0520    19.2260 ca         1 LVC      -0.127000
     10 C13          4.9970     3.3120    18.6740 ca         1 LVC      -0.089000
     11 O01          5.3260     5.8200    17.4800 o          1 LVC      -0.721000
     12 O03          3.4520     5.5760    16.2960 o          1 LVC      -0.721000
     13 O11          4.9670    -0.9830    17.6680 o          1 LVC      -0.500100
     14 H051         2.3280     3.3740    16.6180 ha         1 LVC       0.125500
     15 H061         2.0170     1.1380    17.5890 ha         1 LVC       0.081000
     16 H082         2.5260    -0.4170    19.4300 hc         1 LVC       0.048700
     17 H081         3.8990    -0.1610    20.4660 hc         1 LVC       0.048700
     18 H101         4.6970    -3.3330    18.6410 hc         1 LVC       0.050033
     19 H102         4.7570    -2.5830    20.2470 hc         1 LVC       0.050033
     20 H103         3.2060    -2.8460    19.4800 hc         1 LVC       0.050033
     21 H121         5.5260     1.6890    19.9670 ha         1 LVC       0.081000
     22 H131         5.8360     3.9210    18.9870 ha         1 LVC       0.125500
@<TRIPOS>BOND
     1     1     2 1   
     2     1    11 1   
     3     1    12 1   
     4     2     3 ar  
     5     2    10 ar  
     6     3     4 ar  
     7     3    14 1   
     8     4     5 ar  
     9     4    15 1   
    10     5     6 1   
    11     5     9 ar  
    12     6     7 1   
    13     6    16 1   
    14     6    17 1   
    15     7     8 1   
    16     7    13 2   
    17     8    18 1   
    18     8    19 1   
    19     8    20 1   
    20     9    10 ar  
    21     9    21 1   
    22    10    22 1   
@<TRIPOS>SUBSTRUCTURE
     1 LVC         1 TEMP              0 ****  ****    0 ROOT
