@<TRIPOS>MOLECULE
LVC
   22    22     1     0     0
SMALL
No Charge or Current Charge


@<TRIPOS>ATOM
      1 C02          4.6650     5.0480    17.3070 c          1 LVC       0.713600
      2 C04          4.2380     3.6810    17.8230 ca         1 LVC      -0.124600
      3 C05          3.1300     3.0060    17.2580 ca         1 LVC      -0.089000
      4 C06          2.7370     1.7440    17.7360 ca         1 LVC      -0.127000
      5 C07          3.4410     1.1280    18.7860 ca         1 LVC      -0.114300
      6 C08          3.0170    -0.2440    19.3000 c3         1 LVC      -0.116100
      7 C09          3.7430    -1.3650    18.5400 c          1 LVC       0.562100
      8 C10          4.9210    -2.0280    19.2580 c3         1 LVC      -0.205100
      9 C12          4.5440     1.7890    19.3530 ca         1 LVC      -0.127000
     10 C13          4.9400     3.0520    18.8780 ca         1 LVC      -0.089000
     11 O01          5.6300     5.5950    17.8240 o          1 LVC      -0.721000
     12 O03          4.0290     5.5550    16.3930 o          1 LVC      -0.721000
     13 O11          3.4080    -1.7110    17.4140 o          1 LVC      -0.500100
     14 H051         2.5670     3.4590    16.4450 ha         1 LVC       0.125500
     15 H061         1.8840     1.2430    17.2850 ha         1 LVC       0.081000
     16 H082         1.9360    -0.3690    19.1650 hc         1 LVC       0.048700
     17 H081         3.2570    -0.3130    20.3680 hc         1 LVC       0.048700
     18 H101         5.4100    -2.7980    18.6500 hc         1 LVC       0.050033
     19 H102         5.6260    -1.2530    19.5770 hc         1 LVC       0.050033
     20 H103         4.5720    -2.4320    20.2150 hc         1 LVC       0.050033
     21 H121         5.1000     1.3270    20.1650 ha         1 LVC       0.081000
     22 H131         5.7970     3.5410    19.3360 ha         1 LVC       0.125500
@<TRIPOS>BOND
     1     1     2 1   
     2     1    11 1   
     3     1    12 1   
     4     2     3 ar  
     5     2    10 ar  
     6     3     4 ar  
     7     3    14 1   
     8     4     5 ar  
     9     4    15 1   
    10     5     6 1   
    11     5     9 ar  
    12     6     7 1   
    13     6    16 1   
    14     6    17 1   
    15     7     8 1   
    16     7    13 2   
    17     8    18 1   
    18     8    19 1   
    19     8    20 1   
    20     9    10 ar  
    21     9    21 1   
    22    10    22 1   
@<TRIPOS>SUBSTRUCTURE
     1 LVC         1 TEMP              0 ****  ****    0 ROOT
