@<TRIPOS>MOLECULE
LVD
   22    22     1     0     0
SMALL
abcg2


@<TRIPOS>ATOM
      1 N1          -8.9500   -32.2900   -15.5130 nt         1 LVD      -0.604000
      2 C4          -4.1910   -32.5390   -18.5540 ca         1 LVD      -0.087500
      3 C5          -2.9340   -31.9940   -18.7810 ca         1 LVD      -0.115000
      4 C6          -6.6750   -32.3150   -18.2450 c3         1 LVD       0.204900
      5 C7          -7.8130   -31.7020   -15.0980 c          1 LVD       0.614100
      6 N           -6.7250   -31.8020   -15.9590 ns         1 LVD      -0.326400
      7 C           -2.7950   -30.6230   -18.9860 ca         1 LVD      -0.100000
      8 O           -6.7830   -32.8450   -16.9020 os         1 LVD      -0.298100
      9 C1          -3.9170   -29.8030   -18.9600 ca         1 LVD      -0.115000
     10 C2          -5.1750   -30.3520   -18.7260 ca         1 LVD      -0.087500
     11 C3          -5.3230   -31.7220   -18.5220 ca         1 LVD      -0.123300
     12 O1          -7.7040   -31.0410   -14.0650 o          1 LVD      -0.627100
     13 H1          -9.7540   -32.2570   -14.9100 hn         1 LVD       0.326000
     14 H2          -8.9420   -32.9250   -16.2940 hn         1 LVD       0.326000
     15 H4          -2.0620   -32.6370   -18.8040 ha         1 LVD       0.115000
     16 H5          -7.4670   -31.5810   -18.4030 h1         1 LVD       0.061700
     17 H6          -6.8610   -33.1890   -18.8690 h1         1 LVD       0.061700
     18 H7          -5.8310   -31.7950   -15.4810 hn         1 LVD       0.315500
     19 H8          -1.8150   -30.1980   -19.1660 ha         1 LVD       0.114000
     20 H9          -3.8140   -28.7360   -19.1180 ha         1 LVD       0.115000
     21 H10         -6.0490   -29.7120   -18.6980 ha         1 LVD       0.115500
     22 H3          -4.2980   -33.6060   -18.3970 ha         1 LVD       0.115500
@<TRIPOS>BOND
     1     1     5 1   
     2     1    13 1   
     3     1    14 1   
     4     2     3 ar  
     5     2    11 ar  
     6     2    22 1   
     7     3     7 ar  
     8     3    15 1   
     9     4     8 1   
    10     4    11 1   
    11     4    16 1   
    12     4    17 1   
    13     5     6 1   
    14     5    12 2   
    15     6     8 1   
    16     6    18 1   
    17     7     9 ar  
    18     7    19 1   
    19     9    10 ar  
    20     9    20 1   
    21    10    11 ar  
    22    10    21 1   
@<TRIPOS>SUBSTRUCTURE
     1 LVD         1 TEMP              0 ****  ****    0 ROOT
