@<TRIPOS>MOLECULE
LVD
   22    22     1     0     0
SMALL
No Charge or Current Charge


@<TRIPOS>ATOM
      1 N1          -8.8990   -32.2170   -15.5560 nt         1 LVD      -0.604000
      2 C4          -4.1890   -32.6000   -18.6360 ca         1 LVD      -0.087500
      3 C5          -2.9420   -31.9980   -18.8770 ca         1 LVD      -0.115000
      4 C6          -6.6940   -32.4630   -18.2020 c3         1 LVD       0.204900
      5 C7          -7.7690   -31.5890   -15.1880 c          1 LVD       0.614100
      6 N           -6.6280   -31.9880   -15.8520 ns         1 LVD      -0.326400
      7 C           -2.8370   -30.5980   -18.9460 ca         1 LVD      -0.100000
      8 O           -6.7150   -33.0170   -16.8700 os         1 LVD      -0.298100
      9 C1          -3.9810   -29.8010   -18.7750 ca         1 LVD      -0.115000
     10 C2          -5.2290   -30.4020   -18.5340 ca         1 LVD      -0.087500
     11 C3          -5.3410   -31.8050   -18.4630 ca         1 LVD      -0.123300
     12 O1          -7.7690   -30.7320   -14.3250 o          1 LVD      -0.627100
     13 H1          -9.7710   -31.9810   -15.1080 hn         1 LVD       0.326000
     14 H2          -8.8500   -32.9370   -16.2590 hn         1 LVD       0.326000
     15 H4          -2.0570   -32.6160   -19.0080 ha         1 LVD       0.115000
     16 H5          -7.5030   -31.7310   -18.3300 h1         1 LVD       0.061700
     17 H6          -6.8520   -33.2590   -18.9420 h1         1 LVD       0.061700
     18 H7          -5.7070   -31.6200   -15.6370 hn         1 LVD       0.315500
     19 H8          -1.8710   -30.1330   -19.1320 ha         1 LVD       0.114000
     20 H9          -3.9010   -28.7170   -18.8280 ha         1 LVD       0.115000
     21 H10         -6.1090   -29.7750   -18.4010 ha         1 LVD       0.115500
     22 H3          -4.2620   -33.6840   -18.5820 ha         1 LVD       0.115500
@<TRIPOS>BOND
     1     1     5 1   
     2     1    13 1   
     3     1    14 1   
     4     2     3 ar  
     5     2    11 ar  
     6     2    22 1   
     7     3     7 ar  
     8     3    15 1   
     9     4     8 1   
    10     4    11 1   
    11     4    16 1   
    12     4    17 1   
    13     5     6 1   
    14     5    12 2   
    15     6     8 1   
    16     6    18 1   
    17     7     9 ar  
    18     7    19 1   
    19     9    10 ar  
    20     9    20 1   
    21    10    11 ar  
    22    10    21 1   
@<TRIPOS>SUBSTRUCTURE
     1 LVD         1 TEMP              0 ****  ****    0 ROOT
