@<TRIPOS>MOLECULE
LVE
   34    35     1     0     0
SMALL
bcc


@<TRIPOS>ATOM
      1 C2          23.2030    43.7750    35.4370 ca         1 LVE       0.078100
      2 C4          22.4830    43.3190    37.7020 ca         1 LVE      -0.181600
      3 C6          21.1970    42.5000    35.8570 ca         1 LVE      -0.292200
      4 C12         22.6960    43.5510    39.1540 c          1 LVE       0.602300
      5 C14         22.1760    42.5670    40.1340 ca         1 LVE      -0.179600
      6 C15         21.7510    43.0190    41.3830 ca         1 LVE      -0.079000
      7 C16         21.3040    42.1220    42.3380 ca         1 LVE      -0.140500
      8 O13         23.2880    44.5450    39.5290 o          1 LVE      -0.519100
      9 C3          23.3790    43.9100    36.7920 ca         1 LVE      -0.107000
     10 C21         25.1440    45.0120    34.9040 c3         1 LVE       0.118700
     11 O7          24.0090    44.2710    34.4920 os         1 LVE      -0.291900
     12 C1          22.0860    43.0610    34.9310 ca         1 LVE       0.235100
     13 C5          21.3950    42.6220    37.2340 ca         1 LVE      -0.027000
     14 N9          20.0420    41.7730    35.4040 no         1 LVE       0.327200
     15 O11         19.8700    41.6530    34.1990 o          1 LVE      -0.217500
     16 O10         19.2870    41.3070    36.2170 o          1 LVE      -0.217500
     17 C19         22.1690    41.1960    39.8770 ca         1 LVE      -0.079000
     18 C18         21.7430    40.3030    40.8460 ca         1 LVE      -0.140500
     19 C17         21.2980    40.7490    42.0890 ca         1 LVE      -0.044300
     20 C20         20.8510    39.7750    43.1370 c3         1 LVE      -0.053800
     21 H1          21.1830    42.4810    33.3950 ho         1 LVE       0.479000
     22 H2          21.7490    44.0780    41.6040 ha         1 LVE       0.141500
     23 H3          20.9540    42.4930    43.2940 ha         1 LVE       0.136000
     24 H4          24.2240    44.4610    37.1820 ha         1 LVE       0.165000
     25 H5          25.6630    45.3060    33.9960 h1         1 LVE       0.047700
     26 H6          24.8600    45.9110    35.4570 h1         1 LVE       0.047700
     27 H7          25.8180    44.4120    35.5210 h1         1 LVE       0.047700
     28 H8          20.6780    42.1900    37.9160 ha         1 LVE       0.178000
     29 H9          22.5220    40.8150    38.9280 ha         1 LVE       0.141500
     30 H10         21.7580    39.2410    40.6320 ha         1 LVE       0.136000
     31 H11         21.7120    39.3030    43.6140 hc         1 LVE       0.047700
     32 H12         20.2700    40.2630    43.9180 hc         1 LVE       0.047700
     33 H13         20.2450    38.9770    42.7080 hc         1 LVE       0.047700
     34 O8          21.9860    42.9900    33.6190 oh         1 LVE      -0.453100
@<TRIPOS>BOND
     1     1     9 ar  
     2     1    11 1   
     3     1    12 ar  
     4     2     4 1   
     5     2     9 ar  
     6     2    13 ar  
     7     3    12 ar  
     8     3    13 ar  
     9     3    14 1   
    10     4     5 1   
    11     4     8 2   
    12     5     6 ar  
    13     5    17 ar  
    14     6     7 ar  
    15     6    22 1   
    16     7    19 ar  
    17     7    23 1   
    18     9    24 1   
    19    10    11 1   
    20    10    25 1   
    21    10    26 1   
    22    10    27 1   
    23    12    34 1   
    24    13    28 1   
    25    14    15 1   
    26    14    16 1   
    27    17    18 ar  
    28    17    29 1   
    29    18    19 ar  
    30    18    30 1   
    31    19    20 1   
    32    20    31 1   
    33    20    32 1   
    34    20    33 1   
    35    21    34 1   
@<TRIPOS>SUBSTRUCTURE
     1 LVE         1 TEMP              0 ****  ****    0 ROOT
