@<TRIPOS>MOLECULE
LVE
   34    35     1     0     0
SMALL
No Charge or Current Charge


@<TRIPOS>ATOM
      1 C2          23.2100    43.7430    35.4030 ca         1 LVE       0.078100
      2 C4          22.4470    43.4420    37.7110 ca         1 LVE      -0.181600
      3 C6          21.1290    42.5060    35.8530 ca         1 LVE      -0.292200
      4 C12         22.6390    43.6920    39.1900 c          1 LVE       0.602300
      5 C14         22.1730    42.6500    40.1820 ca         1 LVE      -0.179600
      6 C15         21.7330    43.0460    41.4630 ca         1 LVE      -0.061000
      7 C16         21.3070    42.0870    42.3990 ca         1 LVE      -0.122500
      8 O13         23.1680    44.7270    39.5800 o          1 LVE      -0.519100
      9 C3          23.3790    43.9560    36.7880 ca         1 LVE      -0.089000
     10 C21         25.2900    44.9830    34.8540 c3         1 LVE       0.141900
     11 O7          24.1210    44.2320    34.4770 os         1 LVE      -0.315100
     12 C1          22.0870    43.0150    34.9350 ca         1 LVE       0.235100
     13 C5          21.3230    42.7350    37.2380 ca         1 LVE      -0.009000
     14 N9          19.9160    41.7370    35.4150 no         1 LVE       0.707200
     15 O11         19.7110    41.5970    34.2020 o          1 LVE      -0.407500
     16 O10         19.1740    41.2690    36.2860 o          1 LVE      -0.407500
     17 C19         22.2060    41.2730    39.8680 ca         1 LVE      -0.061000
     18 C18         21.7800    40.3180    40.8070 ca         1 LVE      -0.122500
     19 C17         21.3230    40.7190    42.0750 ca         1 LVE      -0.044300
     20 C20         20.8660    39.6830    43.0900 c3         1 LVE      -0.053800
     21 H1          21.1120    42.3330    33.4390 ho         1 LVE       0.518000
     22 H2          21.7120    44.1000    41.7350 ha         1 LVE       0.123500
     23 H3          20.9660    42.4110    43.3800 ha         1 LVE       0.118000
     24 H4          24.2340    44.5110    37.1650 ha         1 LVE       0.147000
     25 H5          25.8620    45.2660    33.9620 h1         1 LVE       0.047700
     26 H6          25.0100    45.9020    35.3830 h1         1 LVE       0.047700
     27 H7          25.9450    44.3860    35.5020 h1         1 LVE       0.047700
     28 H8          20.5890    42.3760    37.9590 ha         1 LVE       0.160000
     29 H9          22.5740    40.9340    38.9010 ha         1 LVE       0.123500
     30 H10         21.8110    39.2620    40.5480 ha         1 LVE       0.118000
     31 H11         21.7060    39.3480    43.7100 hc         1 LVE       0.047700
     32 H12         20.0980    40.0890    43.7580 hc         1 LVE       0.047700
     33 H13         20.4400    38.8010    42.5970 hc         1 LVE       0.047700
     34 O8          21.9530    42.8240    33.5850 oh         1 LVE      -0.492100
@<TRIPOS>BOND
     1     1     9 ar  
     2     1    11 1   
     3     1    12 ar  
     4     2     4 1   
     5     2     9 ar  
     6     2    13 ar  
     7     3    12 ar  
     8     3    13 ar  
     9     3    14 1   
    10     4     5 1   
    11     4     8 2   
    12     5     6 ar  
    13     5    17 ar  
    14     6     7 ar  
    15     6    22 1   
    16     7    19 ar  
    17     7    23 1   
    18     9    24 1   
    19    10    11 1   
    20    10    25 1   
    21    10    26 1   
    22    10    27 1   
    23    12    34 1   
    24    13    28 1   
    25    14    15 1   
    26    14    16 1   
    27    17    18 ar  
    28    17    29 1   
    29    18    19 ar  
    30    18    30 1   
    31    19    20 1   
    32    20    31 1   
    33    20    32 1   
    34    20    33 1   
    35    21    34 1   
@<TRIPOS>SUBSTRUCTURE
     1 LVE         1 TEMP              0 ****  ****    0 ROOT
