@<TRIPOS>MOLECULE
LVF
   20    21     1     0     0
SMALL
bcc


@<TRIPOS>ATOM
      1 C4        -110.0970  -176.4040   310.5880 cc         1 LVF      -0.087100
      2 C5        -108.8300  -175.8910   310.5910 cd         1 LVF      -0.155400
      3 C6        -108.2780  -174.8840   309.6340 c3         1 LVF       0.065900
      4 C7        -107.2550  -175.4590   308.7650 c1         1 LVF       0.210700
      5 C8        -108.1480  -176.5010   311.6890 ca         1 LVF      -0.082800
      6 C9        -106.8510  -176.3910   312.2000 ca         1 LVF      -0.069000
      7 N         -110.2420  -177.2860   311.6150 na         1 LVF      -0.164400
      8 C2        -108.7310  -178.1320   313.4240 ca         1 LVF      -0.134000
      9 C         -106.5300  -177.1510   313.3040 ca         1 LVF       0.004400
     10 C3        -109.0700  -177.3720   312.3080 ca         1 LVF      -0.050200
     11 N1        -106.4470  -175.9230   308.0910 n1         1 LVF      -0.372800
     12 CL        -104.9250  -177.0470   313.9670 cl         1 LVF      -0.117400
     13 C1        -107.4480  -178.0150   313.9180 ca         1 LVF      -0.102000
     14 H1        -110.9160  -176.1940   309.9180 h4         1 LVF       0.167000
     15 H2        -107.8290  -174.0360   310.1580 hc         1 LVF       0.072700
     16 H3        -109.0690  -174.4780   309.0000 hc         1 LVF       0.072700
     17 H4        -106.1220  -175.7310   311.7470 ha         1 LVF       0.152000
     18 H5        -111.0870  -177.7910   311.8270 hn         1 LVF       0.304700
     19 H6        -109.4440  -178.7970   313.8950 ha         1 LVF       0.137000
     20 H7        -107.1490  -178.5900   314.7830 ha         1 LVF       0.147000
@<TRIPOS>BOND
     1     1     2 2   
     2     1     7 1   
     3     1    14 1   
     4     2     3 1   
     5     2     5 1   
     6     3     4 1   
     7     3    15 1   
     8     3    16 1   
     9     4    11 3   
    10     5     6 ar  
    11     5    10 ar  
    12     6     9 ar  
    13     6    17 1   
    14     7    10 1   
    15     7    18 1   
    16     8    10 ar  
    17     8    13 ar  
    18     8    19 1   
    19     9    12 1   
    20     9    13 ar  
    21    13    20 1   
@<TRIPOS>SUBSTRUCTURE
     1 LVF         1 TEMP              0 ****  ****    0 ROOT
