@<TRIPOS>MOLECULE
LVF
   20    21     1     0     0
SMALL
No Charge or Current Charge


@<TRIPOS>ATOM
      1 C4         110.1360  -176.4010   310.5230 cc         1 LVF      -0.137100
      2 C5        -108.8360  -175.9110   310.6020 cd         1 LVF      -0.155400
      3 C6         108.2240  -174.8980   309.6610 c3         1 LVF       0.065900
      4 C7        -107.3130  -175.4790   308.6670 c1         1 LVF       0.299900
      5 C8         108.1600  -176.5220   311.7240 ca         1 LVF      -0.082800
      6 C9        -106.8580  -176.3710   312.2240 ca         1 LVF      -0.051000
      7 N          110.2530  -177.3110   311.5960 na         1 LVF      -0.214700
      8 C2        -108.7410  -178.1370   313.4260 ca         1 LVF      -0.116000
      9 C          106.5030  -177.1310   313.3580 ca         1 LVF       0.096000
     10 C3        -109.0640  -177.3690   312.3000 ca         1 LVF      -0.050200
     11 N1         106.5760  -175.9140   307.8750 n1         1 LVF      -0.462000
     12 Cl        -104.8850  -176.9860   314.0340 cl         1 LVF      -0.209000
     13 C1         107.4380  -178.0100   313.9580 ca         1 LVF      -0.084000
     14 H1        -110.9440  -176.1890   309.8280 h4         1 LVF       0.217000
     15 H2         107.6720  -174.1430   310.2310 hc         1 LVF       0.072700
     16 H3        -109.0120  -174.3580   309.1240 hc         1 LVF       0.072700
     17 H4         106.1460  -175.6950   311.7580 ha         1 LVF       0.134000
     18 H5        -111.0860  -177.8470   311.8220 hn         1 LVF       0.355000
     19 H6         109.4670  -178.8090   313.8780 ha         1 LVF       0.119000
     20 H7        -107.1510  -178.5890   314.8310 ha         1 LVF       0.129000
@<TRIPOS>BOND
     1     1     2 2   
     2     1     7 1   
     3     1    14 1   
     4     2     3 1   
     5     2     5 1   
     6     3     4 1   
     7     3    15 1   
     8     3    16 1   
     9     4    11 3   
    10     5     6 ar  
    11     5    10 ar  
    12     6     9 ar  
    13     6    17 1   
    14     7    10 1   
    15     7    18 1   
    16     8    10 ar  
    17     8    13 ar  
    18     8    19 1   
    19     9    12 1   
    20     9    13 ar  
    21    13    20 1   
@<TRIPOS>SUBSTRUCTURE
     1 LVF         1 TEMP              0 ****  ****    0 ROOT
