@<TRIPOS>MOLECULE
LVG
   13    12     1     0     0
SMALL
bcc


@<TRIPOS>ATOM
      1 N          100.3840   285.7840   224.8190 n8         1 LVG      -0.876800
      2 CA          99.2460   285.9370   223.9380 c3         1 LVG       0.025700
      3 C           99.4930   287.0520   222.8730 c          1 LVG       0.945600
      4 O           98.7790   286.9890   221.8550 o          1 LVG      -0.828300
      5 CB          97.9310   286.2550   224.6010 c2         1 LVG      -0.120200
      6 OXT        100.3420   287.9150   223.1580 o          1 LVG      -0.828300
      7 CG1         97.7560   286.5730   225.8800 c2         1 LVG      -0.312000
      8 H          100.1270   285.2380   225.6320 hn         1 LVG       0.323800
      9 H2         100.6620   286.6970   225.1540 hn         1 LVG       0.323800
     10 HA          99.1050   285.0000   223.3860 h1         1 LVG       0.054700
     11 HB          97.0660   286.2300   223.9440 ha         1 LVG       0.118000
     12 HG11        98.5760   286.6140   226.5860 ha         1 LVG       0.087000
     13 HG12        96.7740   286.8050   226.2710 ha         1 LVG       0.087000
@<TRIPOS>BOND
     1     1     2 1   
     2     1     8 1   
     3     1     9 1   
     4     2     3 1   
     5     2     5 1   
     6     2    10 1   
     7     3     4 1   
     8     3     6 1   
     9     5     7 2   
    10     5    11 1   
    11     7    12 1   
    12     7    13 1   
@<TRIPOS>SUBSTRUCTURE
     1 LVG         1 TEMP              0 ****  ****    0 ROOT
