@<TRIPOS>MOLECULE
LVG
   13    12     1     0     0
SMALL
No Charge or Current Charge


@<TRIPOS>ATOM
      1 N          100.3520   285.5380   224.7990 n8         1 LVG      -0.876800
      2 CA          99.2270   285.9520   223.8800 c3         1 LVG       0.025700
      3 C           99.4730   287.1870   222.9020 c          1 LVG       0.945600
      4 O           99.0850   287.1000   221.7390 o          1 LVG      -0.828300
      5 CB          97.9600   286.1240   224.7040 c2         1 LVG      -0.120200
      6 OXT        100.0530   288.1860   223.3260 o          1 LVG      -0.828300
      7 CG1         97.8280   286.8720   225.8120 c2         1 LVG      -0.312000
      8 H          100.0270   284.7750   225.4000 hn         1 LVG       0.323800
      9 H2         100.5380   286.3110   225.4460 hn         1 LVG       0.323800
     10 HA          99.0590   285.0950   223.2130 h1         1 LVG       0.054700
     11 HB          97.1020   285.5720   224.3170 ha         1 LVG       0.118000
     12 HG11        98.6610   287.4410   226.2220 ha         1 LVG       0.087000
     13 HG12        96.8760   286.9370   226.3380 ha         1 LVG       0.087000
@<TRIPOS>BOND
     1     1     2 1   
     2     1     8 1   
     3     1     9 1   
     4     2     3 1   
     5     2     5 1   
     6     2    10 1   
     7     3     4 1   
     8     3     6 1   
     9     5     7 2   
    10     5    11 1   
    11     7    12 1   
    12     7    13 1   
@<TRIPOS>SUBSTRUCTURE
     1 LVG         1 TEMP              0 ****  ****    0 ROOT
