@<TRIPOS>MOLECULE
LVJ
   73    75     1     0     0
SMALL
abcg2


@<TRIPOS>ATOM
      1 O3          -5.5150     1.5270    -2.3930 o          1 LVJ      -0.592100
      2 C22         -6.2250     0.8560    -1.6600 c          1 LVJ       0.609100
      3 C23         -7.2190    -0.1830    -2.1920 c3         1 LVJ      -0.124000
      4 C26         -7.1900    -0.1840    -3.7180 c3         1 LVJ      -0.080767
      5 C25         -6.8160    -1.5740    -1.6810 c3         1 LVJ      -0.080767
      6 C24         -8.6380     0.1590    -1.7190 c3         1 LVJ      -0.080767
      7 N4          -6.1850     0.9720    -0.3170 ns         1 LVJ      -0.509900
      8 C21         -5.2670     1.8230     0.4020 c3         1 LVJ       0.147300
      9 C19         -4.5530     1.0630     1.4870 ca         1 LVJ      -0.092300
     10 C18         -4.8360     1.3320     2.8200 ca         1 LVJ      -0.095000
     11 C17         -4.2240     0.6350     3.8470 ca         1 LVJ      -0.093000
     12 C16         -3.2960    -0.3420     3.5370 ca         1 LVJ       0.099000
     13 CL          -2.5010    -1.1940     4.8120 cl         1 LVJ      -0.194000
     14 C20         -3.6330     0.0570     1.2050 ca         1 LVJ       0.149000
     15 CL1         -3.2780    -0.3400    -0.4340 cl         1 LVJ      -0.151000
     16 C15         -2.9840    -0.6570     2.2140 ca         1 LVJ       0.295000
     17 N3          -2.0810    -1.6750     1.9030 nu         1 LVJ      -0.901200
     18 C1          -0.8600    -1.3730     1.3640 cc         1 LVJ       0.635700
     19 N1          -0.3820    -0.1760     1.1910 nd         1 LVJ      -0.593100
     20 C2           0.8350    -0.3810     0.5810 ca         1 LVJ       0.053400
     21 C11          1.0720    -1.7520     0.4140 ca         1 LVJ      -0.023200
     22 N           -0.0450    -2.3720     0.9120 na         1 LVJ      -0.201600
     23 C           -0.3150    -3.7900     0.9420 c3         1 LVJ       0.064900
     24 C10          2.2310    -2.2640    -0.1510 ca         1 LVJ      -0.221000
     25 C5           3.1770    -1.3450    -0.5910 ca         1 LVJ       0.196100
     26 O            4.3540    -1.6970    -1.1380 os         1 LVJ      -0.314100
     27 C6           4.7460    -3.0520    -1.0940 c3         1 LVJ       0.133600
     28 C7           6.1920    -3.1760    -1.5730 c3         1 LVJ       0.190000
     29 O1           6.3160    -2.7360    -2.9130 oh         1 LVJ      -0.635000
     30 C9           7.1170    -2.2990    -0.7400 c3         1 LVJ      -0.103600
     31 C8           6.5970    -4.6440    -1.4460 c3         1 LVJ      -0.103600
     32 C4           2.9550     0.0420    -0.4450 ca         1 LVJ      -0.203600
     33 C3           1.7960     0.5220     0.1500 ca         1 LVJ       0.006000
     34 C12          3.9520     1.0160    -0.9810 c          1 LVJ       0.633700
     35 O2           4.3010     1.0320    -2.1470 o          1 LVJ      -0.553100
     36 N2           4.4100     1.8950    -0.0590 ns         1 LVJ      -0.515900
     37 C13          5.3120     2.9620    -0.3780 c3         1 LVJ       0.038000
     38 C14          4.5740     4.2670    -0.5850 c3         1 LVJ       0.274000
     39 F            3.9150     4.6470     0.5180 f          1 LVJ      -0.115000
     40 F1           5.4210     5.2550    -0.9020 f          1 LVJ      -0.115000
     41 F2           3.6670     4.1860    -1.5660 f          1 LVJ      -0.115000
     42 H4          -6.8140     0.4150     0.2390 hn         1 LVJ       0.311500
     43 H261        -6.2040    -0.4380    -4.1070 hc         1 LVJ       0.040144
     44 H262        -7.8960    -0.9280    -4.0920 hc         1 LVJ       0.040144
     45 H263        -7.4770     0.7830    -4.1320 hc         1 LVJ       0.040144
     46 H251        -6.8820    -1.6560    -0.5960 hc         1 LVJ       0.040144
     47 H252        -7.4800    -2.3280    -2.1070 hc         1 LVJ       0.040144
     48 H253        -5.7950    -1.8230    -1.9730 hc         1 LVJ       0.040144
     49 H241        -8.9310     1.1620    -2.0310 hc         1 LVJ       0.040144
     50 H242        -9.3490    -0.5450    -2.1540 hc         1 LVJ       0.040144
     51 H243        -8.7510     0.0980    -0.6350 hc         1 LVJ       0.040144
     52 H211        -4.5570     2.2440    -0.3100 h1         1 LVJ       0.072200
     53 H212        -5.7990     2.6620     0.8550 h1         1 LVJ       0.072200
     54 H18         -5.5570     2.1040     3.0590 ha         1 LVJ       0.124000
     55 H17         -4.4560     0.8600     4.8780 ha         1 LVJ       0.136000
     56 H3          -2.1360    -2.5070     2.4720 hn         1 LVJ       0.499000
     57 HA           1.6350     1.5880     0.2590 ha         1 LVJ       0.141000
     58 H10          2.3820    -3.3310    -0.2430 ha         1 LVJ       0.122000
     59 HC1         -1.3700    -3.9700     0.7460 h1         1 LVJ       0.052700
     60 HC2          0.2570    -4.2810     0.1590 h1         1 LVJ       0.052700
     61 HC3         -0.0470    -4.2320     1.9010 h1         1 LVJ       0.052700
     62 H61C         4.6690    -3.4390    -0.0710 h1         1 LVJ       0.033700
     63 H62C         4.0880    -3.6640    -1.7260 h1         1 LVJ       0.033700
     64 H1           5.8440    -3.3520    -3.4830 ho         1 LVJ       0.440000
     65 H91C         7.0110    -2.5270     0.3210 hc         1 LVJ       0.045867
     66 H92C         8.1590    -2.4760    -1.0140 hc         1 LVJ       0.045867
     67 H93C         6.9050    -1.2400    -0.8810 hc         1 LVJ       0.045867
     68 H81C         5.9520    -5.2900    -2.0480 hc         1 LVJ       0.045867
     69 H82C         7.6240    -4.7850    -1.7840 hc         1 LVJ       0.045867
     70 H83C         6.5350    -4.9870    -0.4130 hc         1 LVJ       0.045867
     71 H2           4.1550     1.7620     0.9060 hn         1 LVJ       0.327500
     72 H131         6.0310     3.0920     0.4320 h1         1 LVJ       0.089700
     73 H132         5.8720     2.7240    -1.2830 h1         1 LVJ       0.089700
@<TRIPOS>BOND
     1     1     2 2   
     2     2     3 1   
     3     2     7 1   
     4     3     4 1   
     5     3     5 1   
     6     3     6 1   
     7     4    43 1   
     8     4    44 1   
     9     4    45 1   
    10     5    46 1   
    11     5    47 1   
    12     5    48 1   
    13     6    49 1   
    14     6    50 1   
    15     6    51 1   
    16     7     8 1   
    17     7    42 1   
    18     8     9 1   
    19     8    52 1   
    20     8    53 1   
    21     9    10 ar  
    22     9    14 ar  
    23    10    11 ar  
    24    10    54 1   
    25    11    12 ar  
    26    11    55 1   
    27    12    13 1   
    28    12    16 ar  
    29    14    15 1   
    30    14    16 ar  
    31    16    17 1   
    32    17    18 1   
    33    17    56 1   
    34    18    19 2   
    35    18    22 1   
    36    19    20 1   
    37    20    21 ar  
    38    20    33 ar  
    39    21    22 1   
    40    21    24 ar  
    41    22    23 1   
    42    23    59 1   
    43    23    60 1   
    44    23    61 1   
    45    24    25 ar  
    46    24    58 1   
    47    25    26 1   
    48    25    32 ar  
    49    26    27 1   
    50    27    28 1   
    51    27    62 1   
    52    27    63 1   
    53    28    29 1   
    54    28    30 1   
    55    28    31 1   
    56    29    64 1   
    57    30    65 1   
    58    30    66 1   
    59    30    67 1   
    60    31    68 1   
    61    31    69 1   
    62    31    70 1   
    63    32    33 ar  
    64    32    34 1   
    65    33    57 1   
    66    34    35 2   
    67    34    36 1   
    68    36    37 1   
    69    36    71 1   
    70    37    38 1   
    71    37    72 1   
    72    37    73 1   
    73    38    39 1   
    74    38    40 1   
    75    38    41 1   
@<TRIPOS>SUBSTRUCTURE
     1 LVJ         1 TEMP              0 ****  ****    0 ROOT
