@<TRIPOS>MOLECULE
LVJ
   73    75     1     0     0
SMALL
No Charge or Current Charge


@<TRIPOS>ATOM
      1 O3          -6.7630     2.4250    -1.8740 o          1 LVJ      -0.592100
      2 C22         -6.9940     1.3060    -1.4340 c          1 LVJ       0.609100
      3 C23         -8.0210     0.3380    -2.1080 c3         1 LVJ      -0.124000
      4 C26         -7.5660     0.0720    -3.5690 c3         1 LVJ      -0.080767
      5 C25         -8.1370    -1.0300    -1.3690 c3         1 LVJ      -0.080767
      6 C24         -9.4170     1.0180    -2.1120 c3         1 LVJ      -0.080767
      7 N4          -6.3470     0.8460    -0.3080 ns         1 LVJ      -0.509900
      8 C21         -5.3370     1.6010     0.4310 c3         1 LVJ       0.147300
      9 C19         -4.6310     0.7210     1.4560 ca         1 LVJ      -0.092300
     10 C18         -5.0420     0.7790     2.8010 ca         1 LVJ      -0.095000
     11 C17         -4.4280    -0.0320     3.7660 ca         1 LVJ      -0.093000
     12 C16         -3.3910    -0.9040     3.4000 ca         1 LVJ       0.099000
     13 Cl          -2.6500    -1.9070     4.6550 cl         1 LVJ      -0.194000
     14 C20         -3.5870    -0.1600     1.0810 ca         1 LVJ       0.149000
     15 Cl1         -3.1300    -0.2880    -0.6310 cl         1 LVJ      -0.151000
     16 C15         -2.9470    -0.9720     2.0580 ca         1 LVJ       0.295000
     17 N3          -1.8980    -1.8540     1.7240 nu         1 LVJ      -0.901200
     18 C1          -0.6570    -1.5950     1.2320 cc         1 LVJ       0.635700
     19 N1          -0.2100    -0.3600     0.9850 nd         1 LVJ      -0.593100
     20 C2           1.1030    -0.5780     0.5640 ca         1 LVJ       0.053400
     21 C11          1.4240    -1.9050     0.5730 ca         1 LVJ      -0.023200
     22 N            0.3130    -2.5670     1.0030 na         1 LVJ      -0.201600
     23 C            0.2340    -4.0310     1.1370 c3         1 LVJ       0.064900
     24 C10          2.6830    -2.3810     0.1970 ca         1 LVJ      -0.221000
     25 C5           3.6550    -1.4340    -0.2110 ca         1 LVJ       0.196100
     26 O            4.9260    -1.8360    -0.5610 os         1 LVJ      -0.314100
     27 C6           5.2890    -3.2130    -0.7710 c3         1 LVJ       0.133600
     28 C7           6.7700    -3.2500    -1.2530 c3         1 LVJ       0.190000
     29 O1           6.9350    -2.2860    -2.2990 oh         1 LVJ      -0.635000
     30 C9           7.7380    -2.8660    -0.1090 c3         1 LVJ      -0.103600
     31 C8           7.1280    -4.6400    -1.8240 c3         1 LVJ      -0.103600
     32 C4           3.3430    -0.0430    -0.2320 ca         1 LVJ      -0.203600
     33 C3           2.0430     0.3810     0.1650 ca         1 LVJ       0.006000
     34 C12          4.3630     0.9750    -0.6920 c          1 LVJ       0.633700
     35 O2           5.2870     0.7090    -1.4490 o          1 LVJ      -0.553100
     36 N2           4.1650     2.2660    -0.2450 ns         1 LVJ      -0.515900
     37 C13          4.9770     3.4340    -0.6470 c3         1 LVJ       0.038000
     38 C14          4.4830     4.1320    -1.9390 c3         1 LVJ       0.274000
     39 F            3.2020     4.5470    -1.8050 f          1 LVJ      -0.115000
     40 F1           5.2440     5.2160    -2.2130 f          1 LVJ      -0.115000
     41 F2           4.5440     3.3030    -3.0050 f          1 LVJ      -0.115000
     42 H4          -6.5820    -0.0850     0.0090 hn         1 LVJ       0.311500
     43 H261        -6.5710    -0.3890    -3.5880 hc         1 LVJ       0.040144
     44 H262        -8.2630    -0.6020    -4.0820 hc         1 LVJ       0.040144
     45 H263        -7.5170     1.0050    -4.1440 hc         1 LVJ       0.040144
     46 H251        -8.4760    -0.8970    -0.3340 hc         1 LVJ       0.040144
     47 H252        -8.8630    -1.6820    -1.8710 hc         1 LVJ       0.040144
     48 H253        -7.1760    -1.5590    -1.3560 hc         1 LVJ       0.040144
     49 H241        -9.3940     1.9650    -2.6650 hc         1 LVJ       0.040144
     50 H242       -10.1690     0.3720    -2.5830 hc         1 LVJ       0.040144
     51 H243        -9.7480     1.2330    -1.0880 hc         1 LVJ       0.040144
     52 H211        -4.6060     2.0220    -0.2730 h1         1 LVJ       0.072200
     53 H212        -5.8280     2.4440     0.9350 h1         1 LVJ       0.072200
     54 H18         -5.8470     1.4480     3.1000 ha         1 LVJ       0.124000
     55 H17         -4.7560     0.0130     4.8020 ha         1 LVJ       0.136000
     56 H3          -1.8840    -2.7040     2.2800 hn         1 LVJ       0.499000
     57 HA           1.7450     1.4260     0.1450 ha         1 LVJ       0.141000
     58 H10          2.8960    -3.4450     0.2330 ha         1 LVJ       0.122000
     59 HC1         -0.8130    -4.3530     1.1820 h1         1 LVJ       0.052700
     60 HC2          0.7110    -4.5090     0.2720 h1         1 LVJ       0.052700
     61 HC3          0.7500    -4.3440     2.0530 h1         1 LVJ       0.052700
     62 H61C         5.1870    -3.7940     0.1550 h1         1 LVJ       0.033700
     63 H62C         4.6430    -3.6630    -1.5360 h1         1 LVJ       0.033700
     64 H1           6.3850    -1.5140    -2.0290 ho         1 LVJ       0.440000
     65 H91C         7.6540    -3.5740     0.7240 hc         1 LVJ       0.045867
     66 H92C         8.7780    -2.8750    -0.4580 hc         1 LVJ       0.045867
     67 H93C         7.5190    -1.8620     0.2750 hc         1 LVJ       0.045867
     68 H81C         6.4710    -4.9000    -2.6630 hc         1 LVJ       0.045867
     69 H82C         8.1640    -4.6610    -2.1840 hc         1 LVJ       0.045867
     70 H83C         7.0200    -5.4150    -1.0550 hc         1 LVJ       0.045867
     71 H2           3.4030     2.4100     0.4060 hn         1 LVJ       0.327500
     72 H131         4.9680     4.1660     0.1720 h1         1 LVJ       0.089700
     73 H132         6.0200     3.1200    -0.7900 h1         1 LVJ       0.089700
@<TRIPOS>BOND
     1     1     2 2   
     2     2     3 1   
     3     2     7 1   
     4     3     4 1   
     5     3     5 1   
     6     3     6 1   
     7     4    43 1   
     8     4    44 1   
     9     4    45 1   
    10     5    46 1   
    11     5    47 1   
    12     5    48 1   
    13     6    49 1   
    14     6    50 1   
    15     6    51 1   
    16     7     8 1   
    17     7    42 1   
    18     8     9 1   
    19     8    52 1   
    20     8    53 1   
    21     9    10 ar  
    22     9    14 ar  
    23    10    11 ar  
    24    10    54 1   
    25    11    12 ar  
    26    11    55 1   
    27    12    13 1   
    28    12    16 ar  
    29    14    15 1   
    30    14    16 ar  
    31    16    17 1   
    32    17    18 1   
    33    17    56 1   
    34    18    19 2   
    35    18    22 1   
    36    19    20 1   
    37    20    21 ar  
    38    20    33 ar  
    39    21    22 1   
    40    21    24 ar  
    41    22    23 1   
    42    23    59 1   
    43    23    60 1   
    44    23    61 1   
    45    24    25 ar  
    46    24    58 1   
    47    25    26 1   
    48    25    32 ar  
    49    26    27 1   
    50    27    28 1   
    51    27    62 1   
    52    27    63 1   
    53    28    29 1   
    54    28    30 1   
    55    28    31 1   
    56    29    64 1   
    57    30    65 1   
    58    30    66 1   
    59    30    67 1   
    60    31    68 1   
    61    31    69 1   
    62    31    70 1   
    63    32    33 ar  
    64    32    34 1   
    65    33    57 1   
    66    34    35 2   
    67    34    36 1   
    68    36    37 1   
    69    36    71 1   
    70    37    38 1   
    71    37    72 1   
    72    37    73 1   
    73    38    39 1   
    74    38    40 1   
    75    38    41 1   
@<TRIPOS>SUBSTRUCTURE
     1 LVJ         1 TEMP              0 ****  ****    0 ROOT
