@<TRIPOS>MOLECULE
LVK
   22    22     1     0     0
SMALL
abcg2


@<TRIPOS>ATOM
      1 C01          2.6190    -1.4490    21.6000 c3         1 LVK      -0.075100
      2 C02          3.1200    -0.1180    21.0700 c3         1 LVK      -0.180400
      3 C03          2.7280     0.1610    19.6390 c          1 LVK       0.589700
      4 C05          3.1910     1.4310    19.0110 ca         1 LVK      -0.213600
      5 C06          2.8670     1.6870    17.6770 ca         1 LVK      -0.094500
      6 C07          3.2770     2.8580    17.0640 ca         1 LVK      -0.107000
      7 C08          4.0240     3.8080    17.7580 ca         1 LVK      -0.102600
      8 C09          4.3460     3.5510    19.0880 ca         1 LVK      -0.107000
      9 C10          3.9370     2.3810    19.7090 ca         1 LVK      -0.094500
     10 C11          4.4790     5.0990    17.0760 c          1 LVK       0.711600
     11 O04          2.0520    -0.6250    19.0060 o          1 LVK      -0.562100
     12 O12          4.1140     5.2570    15.8960 o          1 LVK      -0.714000
     13 O13          5.1750     5.8690    17.7640 o          1 LVK      -0.714000
     14 H1           2.9400    -1.5810    22.6330 hc         1 LVK       0.030367
     15 H2           1.5310    -1.5080    21.5830 hc         1 LVK       0.030367
     16 H3           3.0090    -2.2870    21.0230 hc         1 LVK       0.030367
     17 H4           4.2100    -0.0630    21.1450 hc         1 LVK       0.058700
     18 H5           2.7510     0.7030    21.6920 hc         1 LVK       0.058700
     19 H6           2.2900     0.9640    17.1170 ha         1 LVK       0.096500
     20 H7           3.0170     3.0400    16.0300 ha         1 LVK       0.130500
     21 H8           4.9230     4.2760    19.6460 ha         1 LVK       0.130500
     22 H9           4.2090     2.2200    20.7440 ha         1 LVK       0.096500
@<TRIPOS>BOND
     1     1     2 1   
     2     1    14 1   
     3     1    15 1   
     4     1    16 1   
     5     2     3 1   
     6     2    17 1   
     7     2    18 1   
     8     3     4 1   
     9     3    11 2   
    10     4     5 ar  
    11     4     9 ar  
    12     5     6 ar  
    13     5    19 1   
    14     6     7 ar  
    15     6    20 1   
    16     7     8 ar  
    17     7    10 1   
    18     8     9 ar  
    19     8    21 1   
    20     9    22 1   
    21    10    12 1   
    22    10    13 1   
@<TRIPOS>SUBSTRUCTURE
     1 LVK         1 TEMP              0 ****  ****    0 ROOT
