@<TRIPOS>MOLECULE
LVK
   22    22     1     0     0
SMALL
No Charge or Current Charge


@<TRIPOS>ATOM
      1 C01          2.5970    -1.5080    21.6740 c3         1 LVK      -0.075100
      2 C02          3.1030    -0.1670    21.0950 c3         1 LVK      -0.180400
      3 C03          2.7300     0.1250    19.6260 c          1 LVK       0.589700
      4 C05          3.1920     1.4240    18.9840 ca         1 LVK      -0.213600
      5 C06          2.8570     1.7030    17.6390 ca         1 LVK      -0.094500
      6 C07          3.2710     2.8960    17.0230 ca         1 LVK      -0.107000
      7 C08          4.0350     3.8510    17.7300 ca         1 LVK      -0.102600
      8 C09          4.3700     3.5730    19.0740 ca         1 LVK      -0.107000
      9 C10          3.9560     2.3800    19.6920 ca         1 LVK      -0.094500
     10 C11          4.4840     5.1450    17.0620 c          1 LVK       0.711600
     11 O04          2.0680    -0.6840    18.9830 o          1 LVK      -0.562100
     12 O12          4.1700     5.3430    15.8960 o          1 LVK      -0.714000
     13 O13          5.1440     5.9430    17.7130 o          1 LVK      -0.714000
     14 H1           2.9140    -1.6160    22.7180 hc         1 LVK       0.030367
     15 H2           1.5010    -1.5560    21.6430 hc         1 LVK       0.030367
     16 H3           2.9990    -2.3540    21.1040 hc         1 LVK       0.030367
     17 H4           4.1910    -0.0780    21.1890 hc         1 LVK       0.058700
     18 H5           2.7650     0.6820    21.7010 hc         1 LVK       0.058700
     19 H6           2.2700     0.9930    17.0600 ha         1 LVK       0.096500
     20 H7           2.9940     3.0750    15.9860 ha         1 LVK       0.130500
     21 H8           4.9560     4.2860    19.6500 ha         1 LVK       0.130500
     22 H9           4.2410     2.2180    20.7280 ha         1 LVK       0.096500
@<TRIPOS>BOND
     1     1     2 1   
     2     1    14 1   
     3     1    15 1   
     4     1    16 1   
     5     2     3 1   
     6     2    17 1   
     7     2    18 1   
     8     3     4 1   
     9     3    11 2   
    10     4     5 ar  
    11     4     9 ar  
    12     5     6 ar  
    13     5    19 1   
    14     6     7 ar  
    15     6    20 1   
    16     7     8 ar  
    17     7    10 1   
    18     8     9 ar  
    19     8    21 1   
    20     9    22 1   
    21    10    12 1   
    22    10    13 1   
@<TRIPOS>SUBSTRUCTURE
     1 LVK         1 TEMP              0 ****  ****    0 ROOT
