@<TRIPOS>MOLECULE
LVL
   23    24     1     0     0
SMALL
abcg2


@<TRIPOS>ATOM
      1 C1        -106.3680  -175.7300   312.0490 ca         1 LVL      -0.224300
      2 C2        -107.3120  -176.6170   312.5940 ca         1 LVL      -0.046000
      3 C3        -108.5900  -176.7000   312.0800 ca         1 LVL      -0.131000
      4 C4        -108.9090  -175.8800   311.0020 ca         1 LVL      -0.024200
      5 C5        -109.9030  -174.8150   309.3200 cc         1 LVL      -0.138100
      6 C6        -108.6370  -174.3070   309.3710 cd         1 LVL      -0.145400
      7 C7        -108.0650  -173.2520   308.4810 c3         1 LVL       0.064900
      8 C8        -107.0490  -173.7860   307.5790 c1         1 LVL       0.296900
      9 N1        -106.2510  -174.2170   306.8710 n1         1 LVL      -0.457000
     10 N         -110.0660  -175.7530   310.2970 na         1 LVL      -0.215700
     11 C         -104.9740  -175.6800   312.5820 c3         1 LVL       0.358300
     12 C9        -107.9740  -174.9790   310.4460 ca         1 LVL      -0.100800
     13 C10       -106.6900  -174.9090   310.9810 ca         1 LVL       0.000000
     14 F         -104.8250  -176.3840   313.7100 f          1 LVL      -0.115667
     15 F1        -104.5780  -174.4260   312.8510 f          1 LVL      -0.115667
     16 F2        -104.0820  -176.1680   311.7020 f          1 LVL      -0.115667
     17 H1        -107.0500  -177.2500   313.4300 ha         1 LVL       0.131000
     18 H2        -109.3140  -177.3830   312.5050 ha         1 LVL       0.122000
     19 H3        -110.7100  -174.5710   308.6480 h4         1 LVL       0.219000
     20 H4        -107.6050  -172.4450   309.0580 hc         1 LVL       0.074700
     21 H5        -108.8460  -172.7940   307.8700 hc         1 LVL       0.074700
     22 H6        -110.9160  -176.2660   310.4670 hn         1 LVL       0.357000
     23 H7        -105.9630  -174.2220   310.5630 ha         1 LVL       0.133000
@<TRIPOS>BOND
     1     1     2 ar  
     2     1    11 1   
     3     1    13 ar  
     4     2     3 ar  
     5     2    17 1   
     6     3     4 ar  
     7     3    18 1   
     8     4    10 1   
     9     4    12 ar  
    10     5     6 2   
    11     5    10 1   
    12     5    19 1   
    13     6     7 1   
    14     6    12 1   
    15     7     8 1   
    16     7    20 1   
    17     7    21 1   
    18     8     9 3   
    19    10    22 1   
    20    11    14 1   
    21    11    15 1   
    22    11    16 1   
    23    12    13 ar  
    24    13    23 1   
@<TRIPOS>SUBSTRUCTURE
     1 LVL         1 TEMP              0 ****  ****    0 ROOT
