@<TRIPOS>MOLECULE
LVL
   23    24     1     0     0
SMALL
No Charge or Current Charge


@<TRIPOS>ATOM
      1 C1         106.3310  -175.7360   312.0610 ca         1 LVL      -0.224300
      2 C2        -107.2810  -176.6620   312.5750 ca         1 LVL      -0.046000
      3 C3         108.5800  -176.7450   312.0300 ca         1 LVL      -0.131000
      4 C4        -108.9010  -175.8940   310.9670 ca         1 LVL      -0.024200
      5 C5         109.9640  -174.7960   309.2630 cc         1 LVL      -0.138100
      6 C6        -108.6640  -174.3150   309.3850 cd         1 LVL      -0.145400
      7 C7         108.0470  -173.2350   308.5250 c3         1 LVL       0.064900
      8 C8        -107.1300  -173.7410   307.4970 c1         1 LVL       0.296900
      9 N1         106.3900  -174.1170   306.6780 n1         1 LVL      -0.457000
     10 N         -110.0870  -175.7830   310.2650 na         1 LVL      -0.215700
     11 C          104.9210  -175.6650   312.6540 c3         1 LVL       0.358300
     12 C9        -107.9940  -175.0090   310.4630 ca         1 LVL      -0.100800
     13 C10        106.6940  -174.8970   310.9760 ca         1 LVL       0.000000
     14 F         -104.9070  -175.9420   313.9780 f          1 LVL      -0.115667
     15 F1         104.3620  -174.4410   312.5110 f          1 LVL      -0.115667
     16 F2        -104.0920  -176.5500   312.0560 f          1 LVL      -0.115667
     17 H1         107.0130  -177.3230   313.3980 ha         1 LVL       0.131000
     18 H2        -109.3070  -177.4520   312.4230 ha         1 LVL       0.122000
     19 H3         110.7680  -174.5310   308.5820 h4         1 LVL       0.219000
     20 H4        -107.4990  -172.5240   309.1530 hc         1 LVL       0.074700
     21 H5         108.8320  -172.6570   308.0250 hc         1 LVL       0.074700
     22 H6        -110.9200  -176.3340   310.4470 hn         1 LVL       0.357000
     23 H7         105.9910  -174.1870   310.5470 ha         1 LVL       0.133000
@<TRIPOS>BOND
     1     1     2 ar  
     2     1    11 1   
     3     1    13 ar  
     4     2     3 ar  
     5     2    17 1   
     6     3     4 ar  
     7     3    18 1   
     8     4    10 1   
     9     4    12 ar  
    10     5     6 2   
    11     5    10 1   
    12     5    19 1   
    13     6     7 1   
    14     6    12 1   
    15     7     8 1   
    16     7    20 1   
    17     7    21 1   
    18     8     9 3   
    19    10    22 1   
    20    11    14 1   
    21    11    15 1   
    22    11    16 1   
    23    12    13 ar  
    24    13    23 1   
@<TRIPOS>SUBSTRUCTURE
     1 LVL         1 TEMP              0 ****  ****    0 ROOT
