@<TRIPOS>MOLECULE
LVN
   17    16     1     0     0
SMALL
bcc


@<TRIPOS>ATOM
      1 C          -44.0520   -30.0880   -30.5350 c          1 LVN       0.938600
      2 N          -44.4630   -28.0480   -29.2510 n8         1 LVN      -0.883800
      3 O          -43.5340   -30.4170   -31.6210 o          1 LVN      -0.834800
      4 CA         -44.8130   -28.7360   -30.4870 c3         1 LVN       0.024500
      5 CB         -44.4760   -27.8760   -31.6970 c3         1 LVN      -0.146700
      6 CG1        -44.8470   -28.5540   -32.9860 c          1 LVN       0.628900
      7 OG1        -45.8660   -29.1740   -33.1820 o          1 LVN      -0.558100
      8 CG2        -45.1740   -26.5110   -31.6920 c3         1 LVN      -0.084100
      9 OXT        -44.0790   -30.7590   -29.4850 o          1 LVN      -0.834800
     10 H          -45.1630   -27.3480   -29.0380 hn         1 LVN       0.323300
     11 H2         -44.5170   -28.7250   -28.4990 hn         1 LVN       0.323300
     12 HA         -45.8880   -28.9800   -30.5260 h1         1 LVN       0.017700
     13 HB         -43.3970   -27.7040   -31.7240 hc         1 LVN       0.069700
     14 HG11       -44.1250   -28.3940   -33.8120 h4         1 LVN      -0.044800
     15 HG21       -44.9570   -25.9490   -32.6030 hc         1 LVN       0.020367
     16 HG22       -46.2580   -26.6190   -31.6160 hc         1 LVN       0.020367
     17 HG23       -44.8310   -25.9050   -30.8530 hc         1 LVN       0.020367
@<TRIPOS>BOND
     1     1     3 1   
     2     1     4 1   
     3     1     9 1   
     4     2     4 1   
     5     2    10 1   
     6     2    11 1   
     7     4     5 1   
     8     4    12 1   
     9     5     6 1   
    10     5     8 1   
    11     5    13 1   
    12     6     7 2   
    13     6    14 1   
    14     8    15 1   
    15     8    16 1   
    16     8    17 1   
@<TRIPOS>SUBSTRUCTURE
     1 LVN         1 TEMP              0 ****  ****    0 ROOT
