@<TRIPOS>MOLECULE
LVN
   17    16     1     0     0
SMALL
No Charge or Current Charge


@<TRIPOS>ATOM
      1 C          -44.0620   -30.2050   -30.6200 c          1 LVN       0.938600
      2 N          -44.2940   -27.9830   -29.2100 n8         1 LVN      -0.883800
      3 O          -43.0780   -30.3560   -31.3410 o          1 LVN      -0.834800
      4 CA         -44.6980   -28.7450   -30.4500 c3         1 LVN       0.024500
      5 CB         -44.5010   -27.8380   -31.7080 c3         1 LVN      -0.146700
      6 CG1        -44.8370   -28.6070   -33.0010 c          1 LVN       0.628900
      7 OG1        -45.9360   -29.1070   -33.2290 o          1 LVN      -0.558100
      8 CG2        -45.3010   -26.5080   -31.6550 c3         1 LVN      -0.084100
      9 OXT        -44.5860   -31.1420   -30.0260 o          1 LVN      -0.834800
     10 H          -44.8230   -27.1070   -29.1680 hn         1 LVN       0.323300
     11 H2         -44.5920   -28.5070   -28.3800 hn         1 LVN       0.323300
     12 HA         -45.7800   -28.9120   -30.3540 h1         1 LVN       0.017700
     13 HB         -43.4380   -27.5770   -31.7830 hc         1 LVN       0.069700
     14 HG11       -44.0130   -28.6800   -33.7440 h4         1 LVN      -0.044800
     15 HG21       -45.1530   -25.9340   -32.5780 hc         1 LVN       0.020367
     16 HG22       -46.3740   -26.7010   -31.5430 hc         1 LVN       0.020367
     17 HG23       -44.9750   -25.8780   -30.8190 hc         1 LVN       0.020367
@<TRIPOS>BOND
     1     1     3 1   
     2     1     4 1   
     3     1     9 1   
     4     2     4 1   
     5     2    10 1   
     6     2    11 1   
     7     4     5 1   
     8     4    12 1   
     9     5     6 1   
    10     5     8 1   
    11     5    13 1   
    12     6     7 2   
    13     6    14 1   
    14     8    15 1   
    15     8    16 1   
    16     8    17 1   
@<TRIPOS>SUBSTRUCTURE
     1 LVN         1 TEMP              0 ****  ****    0 ROOT
