@<TRIPOS>MOLECULE
LVO
   68    68     1     0     0
SMALL
No Charge or Current Charge


@<TRIPOS>ATOM
      1 CAA         -3.0930    -2.2000    -0.1720 ce         1 LVO       0.038900
      2 CAB         -4.0550    -1.6410     0.6110 c2         1 LVO      -0.415200
      3 CAC         -4.0110    -0.2020     1.0620 c6         1 LVO       0.277700
      4 CAD         -3.1110     0.6390     0.1120 c6         1 LVO       0.055700
      5 CAE         -1.7710    -0.1310    -0.0470 c6         1 LVO       0.158300
      6 OAF         -1.9930    -1.4570    -0.5950 os         1 LVO      -0.298100
      7 CAG         -3.1340    -3.6630    -0.6380 c          1 LVO       0.726200
      8 OAH         -2.2230    -4.0890    -1.3400 o          1 LVO      -0.695000
      9 OAI         -4.0770    -4.3680    -0.2940 o          1 LVO      -0.695000
     10 CAJ         -0.6800     0.5800    -0.9310 c3         1 LVO       0.156300
     11 CAK          0.6800    -0.1770    -0.9680 c3         1 LVO       0.146300
     12 CAL          1.7190     0.5050    -1.8950 c3         1 LVO       0.126600
     13 OAM          3.0010    -0.1200    -1.6720 os         1 LVO      -0.423100
     14 CAN          4.0690     0.3200    -2.4110 c          1 LVO       0.593100
     15 OAV          4.0180     1.2250    -3.2320 o          1 LVO      -0.509000
     16 OAW         -1.1330     0.7210    -2.3020 os         1 LVO      -0.430000
     17 CAX         -1.7030     1.9940    -2.6590 c3         1 LVO       0.146900
     18 OAY          1.2410    -0.2760     0.3610 oh         1 LVO      -0.679000
     19 NAZ         -5.3820     0.3020     1.0350 nu         1 LVO      -0.904400
     20 CBA         -6.2550     0.1740     2.0130 c2         1 LVO       0.809100
     21 NBB         -7.3170     0.8070     1.6000 nv         1 LVO      -1.075200
     22 NBC         -5.9890    -0.1680     3.1810 n2         1 LVO      -0.904100
     23 CBE         -3.3680     4.3780     1.0860 c3         1 LVO      -0.183100
     24 OBF         -4.8710     2.9200    -0.1150 o          1 LVO      -0.614100
     25 NBG         -2.9150     2.0210     0.6210 ns         1 LVO      -0.492900
     26 HAB         -4.9080    -2.2290     0.9500 ha         1 LVO       0.216000
     27 HAC         -3.5860    -0.1480     2.0780 h1         1 LVO       0.072700
     28 HAD         -3.5960     0.6840    -0.8730 h1         1 LVO       0.104700
     29 HAE         -1.3470    -0.2590     0.9590 h1         1 LVO       0.044700
     30 HAJ         -0.4840     1.5700    -0.4970 h1         1 LVO       0.019700
     31 HAK          0.4910    -1.1810    -1.3780 h1         1 LVO       0.142700
     32 H1AL         1.4080     0.3920    -2.9420 h1         1 LVO       0.046700
     33 H2AL         1.7680     1.5780    -1.6640 h1         1 LVO       0.046700
     34 C15          5.3560    -0.4210    -2.0430 c3         1 LVO      -0.141400
     35 H1AX        -2.6180     2.2020    -2.0950 h1         1 LVO       0.025700
     36 H2AX        -0.9870     2.8050    -2.4720 h1         1 LVO       0.025700
     37 H3AX        -1.9570     2.0070    -3.7260 h1         1 LVO       0.025700
     38 HOAY         2.2040    -0.4370     0.2240 ho         1 LVO       0.476000
     39 HNAZ        -5.4860     1.2130     0.5980 hn         1 LVO       0.479000
     40 H1BB        -7.4540     0.6470     0.6130 hn         1 LVO       0.444500
     41 H2BB        -8.1370     0.6180     2.1590 hn         1 LVO       0.444500
     42 HBC         -6.8230     0.0020     3.7500 hn         1 LVO       0.360400
     43 H1BE        -4.1050     5.1760     0.9440 hc         1 LVO       0.053033
     44 H2BE        -3.1430     4.2190     2.1470 hc         1 LVO       0.053033
     45 H3BE        -2.3880     4.6540     0.6790 hc         1 LVO       0.053033
     46 HNBG        -2.0730     2.2310     1.1430 hn         1 LVO       0.300500
     47 C16          6.1520     0.3390    -0.9550 c3         1 LVO      -0.067400
     48 C17          7.4550    -0.3820    -0.5470 c3         1 LVO      -0.076400
     49 C18          8.2500     0.3760     0.5390 c3         1 LVO      -0.074400
     50 C19          9.5530    -0.3450     0.9470 c3         1 LVO      -0.076400
     51 C20         10.3490     0.4130     2.0330 c3         1 LVO      -0.075400
     52 C21         11.6490    -0.3060     2.4410 c3         1 LVO      -0.088100
     53 H23          5.0970    -1.4060    -1.6370 hc         1 LVO       0.076200
     54 H24          5.9790    -0.5240    -2.9390 hc         1 LVO       0.076200
     55 H25          6.3950     1.3440    -1.3230 hc         1 LVO       0.049700
     56 H26          5.5180     0.4680    -0.0690 hc         1 LVO       0.049700
     57 H27          7.2110    -1.3870    -0.1780 hc         1 LVO       0.039200
     58 H28          8.0890    -0.5110    -1.4330 hc         1 LVO       0.039200
     59 H29          8.4940     1.3800     0.1700 hc         1 LVO       0.037200
     60 H30          7.6170     0.5050     1.4250 hc         1 LVO       0.037200
     61 H31          9.3090    -1.3490     1.3160 hc         1 LVO       0.037700
     62 H32         10.1870    -0.4740     0.0610 hc         1 LVO       0.037700
     63 H33         10.5960     1.4180     1.6670 hc         1 LVO       0.035700
     64 H34          9.7190     0.5420     2.9220 hc         1 LVO       0.035700
     65 H35         12.1770     0.2690     3.2110 hc         1 LVO       0.030033
     66 H36         11.4320    -1.3020     2.8440 hc         1 LVO       0.030033
     67 H37         12.3170    -0.4190     1.5780 hc         1 LVO       0.030033
     68 CBD         -3.8070     3.0570     0.4700 c          1 LVO       0.606100
@<TRIPOS>BOND
     1     1     2 2   
     2     1     6 1   
     3     1     7 1   
     4     2     3 1   
     5     2    26 1   
     6     3     4 1   
     7     3    19 1   
     8     3    27 1   
     9     4     5 1   
    10     4    25 1   
    11     4    28 1   
    12     5     6 1   
    13     5    10 1   
    14     5    29 1   
    15     7     8 1   
    16     7     9 1   
    17    10    11 1   
    18    10    16 1   
    19    10    30 1   
    20    11    12 1   
    21    11    18 1   
    22    11    31 1   
    23    12    13 1   
    24    12    32 1   
    25    12    33 1   
    26    13    14 1   
    27    14    15 2   
    28    14    34 1   
    29    16    17 1   
    30    17    35 1   
    31    17    36 1   
    32    17    37 1   
    33    18    38 1   
    34    19    20 1   
    35    19    39 1   
    36    20    21 1   
    37    20    22 2   
    38    21    40 1   
    39    21    41 1   
    40    22    42 1   
    41    23    43 1   
    42    23    44 1   
    43    23    45 1   
    44    23    68 1   
    45    24    68 2   
    46    25    46 1   
    47    25    68 1   
    48    34    47 1   
    49    34    53 1   
    50    34    54 1   
    51    47    48 1   
    52    47    55 1   
    53    47    56 1   
    54    48    49 1   
    55    48    57 1   
    56    48    58 1   
    57    49    50 1   
    58    49    59 1   
    59    49    60 1   
    60    50    51 1   
    61    50    61 1   
    62    50    62 1   
    63    51    52 1   
    64    51    63 1   
    65    51    64 1   
    66    52    65 1   
    67    52    66 1   
    68    52    67 1   
@<TRIPOS>SUBSTRUCTURE
     1 LVO         1 TEMP              0 ****  ****    0 ROOT
