@<TRIPOS>MOLECULE
LVO
   68    68     1     0     0
SMALL
abcg2


@<TRIPOS>ATOM
      1 CAA         -3.0600    -2.1240    -0.0870 ce         1 LVO       0.038900
      2 CAB         -4.2380    -1.6900     0.3630 c2         1 LVO      -0.415200
      3 CAC         -4.5360    -0.2410     0.6190 c6         1 LVO       0.277700
      4 CAD         -3.4300     0.6240     0.0070 c6         1 LVO       0.055700
      5 CAE         -2.0810    -0.0250     0.3280 c6         1 LVO       0.158300
      6 OAF         -2.0010    -1.3010    -0.2770 os         1 LVO      -0.298100
      7 CAG         -2.7760    -3.5800    -0.4400 c          1 LVO       0.726200
      8 OAH         -1.6280    -3.8340    -0.8390 o          1 LVO      -0.695000
      9 OAI         -3.7250    -4.3720    -0.2930 o          1 LVO      -0.695000
     10 CAJ         -0.8830     0.7880    -0.1530 c3         1 LVO       0.156300
     11 CAK          0.4450     0.0520     0.1200 c3         1 LVO       0.146300
     12 CAL          1.6230     0.9390    -0.2500 c3         1 LVO       0.126600
     13 OAM          2.8170     0.1810    -0.0520 os         1 LVO      -0.423100
     14 CAN          3.9760     0.8060    -0.2380 c          1 LVO       0.593100
     15 OAV          4.0550     1.9740    -0.5250 o          1 LVO      -0.509000
     16 OAW         -1.0140     1.0470    -1.5310 os         1 LVO      -0.430000
     17 CAX         -0.8820     2.3960    -1.9190 c3         1 LVO       0.146900
     18 OAY          0.5300    -0.3790     1.4560 oh         1 LVO      -0.679000
     19 NAZ         -5.8130     0.1690     0.0900 nu         1 LVO      -0.904400
     20 CBA         -6.9750    -0.0260     0.7790 c2         1 LVO       0.809100
     21 NBB         -8.1070     0.3150     0.0670 nv         1 LVO      -1.075200
     22 NBC         -6.9560    -0.4120     2.0030 n2         1 LVO      -0.904100
     23 CBE         -4.2180     4.2780     0.5700 c3         1 LVO      -0.183100
     24 OBF         -4.4760     2.8770    -1.3490 o          1 LVO      -0.614100
     25 NBG         -3.5030     1.9790     0.4880 ns         1 LVO      -0.492900
     26 HAB         -5.0290    -2.4090     0.5190 ha         1 LVO       0.216000
     27 HAC         -4.5750    -0.0540     1.6960 h1         1 LVO       0.072700
     28 HAD         -3.5490     0.6510    -1.0780 h1         1 LVO       0.104700
     29 HAE         -2.0010    -0.1400     1.4190 h1         1 LVO       0.044700
     30 HAJ         -0.8850     1.7240     0.4250 h1         1 LVO       0.019700
     31 HAK          0.4720    -0.8520    -0.4940 h1         1 LVO       0.142700
     32 H1AL         1.5620     1.2550    -1.2930 h1         1 LVO       0.046700
     33 H2AL         1.6350     1.8360     0.3770 h1         1 LVO       0.046700
     34 C15          5.1450    -0.1250    -0.0700 c3         1 LVO      -0.141400
     35 H1AX        -1.5390     3.0570    -1.3480 h1         1 LVO       0.025700
     36 H2AX         0.1430     2.7660    -1.8110 h1         1 LVO       0.025700
     37 H3AX        -1.1560     2.4630    -2.9700 h1         1 LVO       0.025700
     38 HOAY         0.5420     0.3920     2.0350 ho         1 LVO       0.476000
     39 HNAZ        -5.8720     0.2430    -0.9130 hn         1 LVO       0.479000
     40 H1BB        -8.0480     0.2620    -0.9380 hn         1 LVO       0.444500
     41 H2BB        -8.9640    -0.0870     0.4100 hn         1 LVO       0.444500
     42 HBC         -7.8970    -0.4550     2.3750 hn         1 LVO       0.360400
     43 H1BE        -4.0380     5.1220    -0.0920 hc         1 LVO       0.053033
     44 H2BE        -5.2400     4.3640     0.9420 hc         1 LVO       0.053033
     45 H3BE        -3.5440     4.3470     1.4230 hc         1 LVO       0.053033
     46 HNBG        -3.2830     2.1370     1.4600 hn         1 LVO       0.300500
     47 C16          6.4870     0.5890    -0.0200 c3         1 LVO      -0.067400
     48 C17          7.6550    -0.3860     0.0530 c3         1 LVO      -0.076400
     49 C18          9.0040     0.3200     0.1260 c3         1 LVO      -0.074400
     50 C19         10.1850    -0.6410     0.1620 c3         1 LVO      -0.076400
     51 C20         11.5330     0.0660     0.2400 c3         1 LVO      -0.075400
     52 C21         12.7070    -0.9040     0.2660 c3         1 LVO      -0.088100
     53 H23          4.9940    -0.7320     0.8270 hc         1 LVO       0.076200
     54 H24          5.1220    -0.8320    -0.9080 hc         1 LVO       0.076200
     55 H25          6.6020     1.2230    -0.9030 hc         1 LVO       0.049700
     56 H26          6.5170     1.2580     0.8450 hc         1 LVO       0.049700
     57 H27          7.5390    -1.0390     0.9240 hc         1 LVO       0.039200
     58 H28          7.6350    -1.0430    -0.8240 hc         1 LVO       0.039200
     59 H29          9.1090     0.9910    -0.7340 hc         1 LVO       0.037200
     60 H30          9.0300     0.9610     1.0140 hc         1 LVO       0.037200
     61 H31         10.0790    -1.3160     1.0190 hc         1 LVO       0.037700
     62 H32         10.1610    -1.2790    -0.7290 hc         1 LVO       0.037700
     63 H33         11.6350     0.7440    -0.6130 hc         1 LVO       0.035700
     64 H34         11.5590     0.6990     1.1330 hc         1 LVO       0.035700
     65 H35         13.6620    -0.3800     0.3190 hc         1 LVO       0.030033
     66 H36         12.6460    -1.5700     1.1290 hc         1 LVO       0.030033
     67 H37         12.7210    -1.5270    -0.6300 hc         1 LVO       0.030033
     68 CBD         -4.0830     2.9860    -0.1970 c          1 LVO       0.606100
@<TRIPOS>BOND
     1     1     2 2   
     2     1     6 1   
     3     1     7 1   
     4     2     3 1   
     5     2    26 1   
     6     3     4 1   
     7     3    19 1   
     8     3    27 1   
     9     4     5 1   
    10     4    25 1   
    11     4    28 1   
    12     5     6 1   
    13     5    10 1   
    14     5    29 1   
    15     7     8 1   
    16     7     9 1   
    17    10    11 1   
    18    10    16 1   
    19    10    30 1   
    20    11    12 1   
    21    11    18 1   
    22    11    31 1   
    23    12    13 1   
    24    12    32 1   
    25    12    33 1   
    26    13    14 1   
    27    14    15 2   
    28    14    34 1   
    29    16    17 1   
    30    17    35 1   
    31    17    36 1   
    32    17    37 1   
    33    18    38 1   
    34    19    20 1   
    35    19    39 1   
    36    20    21 1   
    37    20    22 2   
    38    21    40 1   
    39    21    41 1   
    40    22    42 1   
    41    23    43 1   
    42    23    44 1   
    43    23    45 1   
    44    23    68 1   
    45    24    68 2   
    46    25    46 1   
    47    25    68 1   
    48    34    47 1   
    49    34    53 1   
    50    34    54 1   
    51    47    48 1   
    52    47    55 1   
    53    47    56 1   
    54    48    49 1   
    55    48    57 1   
    56    48    58 1   
    57    49    50 1   
    58    49    59 1   
    59    49    60 1   
    60    50    51 1   
    61    50    61 1   
    62    50    62 1   
    63    51    52 1   
    64    51    63 1   
    65    51    64 1   
    66    52    65 1   
    67    52    66 1   
    68    52    67 1   
@<TRIPOS>SUBSTRUCTURE
     1 LVO         1 TEMP              0 ****  ****    0 ROOT
