@<TRIPOS>MOLECULE
LVP
   24    25     1     0     0
SMALL
No Charge or Current Charge


@<TRIPOS>ATOM
      1 N1         -17.8190   -18.0570     0.4620 ns         1 LVP      -0.355300
      2 C4         -17.6070   -19.1440    -1.7850 ca         1 LVP       0.230000
      3 C5         -16.5280   -19.9550    -1.3730 ca         1 LVP      -0.121000
      4 C6         -17.1330   -17.0130     1.0880 c          1 LVP       0.512600
      5 C7         -17.0420   -17.1650     2.5640 cc         1 LVP       0.100500
      6 C8         -16.4390   -16.3160     3.4420 cd         1 LVP      -0.164000
      7 N          -18.0900   -18.1040    -0.9610 nu         1 LVP      -0.668200
      8 C          -16.0520   -20.9870    -2.2020 ca         1 LVP      -0.095000
      9 O          -16.6560   -16.0700     0.4650 o          1 LVP      -0.559100
     10 C1         -16.6460   -21.2190    -3.4530 ca         1 LVP      -0.112000
     11 C2         -17.7190   -20.4160    -3.8780 ca         1 LVP      -0.118000
     12 C3         -18.1950   -19.3850    -3.0510 ca         1 LVP       0.126000
     13 C9         -16.6170   -16.8870     4.7140 cd         1 LVP       0.248900
     14 F          -19.2310   -18.6240    -3.4810 f          1 LVP      -0.185000
     15 N2         -17.2880   -18.0260     4.6700 nc         1 LVP      -0.337300
     16 O1         -17.5750   -18.2220     3.2660 os         1 LVP      -0.077700
     17 H1         -18.2320   -18.7740     1.0630 hn         1 LVP       0.371500
     18 H2         -16.0500   -19.7860    -0.4120 ha         1 LVP       0.122000
     19 H3         -15.9260   -15.3910     3.2080 ha         1 LVP       0.173000
     20 H4         -18.9470   -17.6160    -1.2570 hn         1 LVP       0.485000
     21 H5         -15.2190   -21.6060    -1.8740 ha         1 LVP       0.118000
     22 H6         -16.2760   -22.0170    -4.0930 ha         1 LVP       0.121000
     23 H7         -18.1810   -20.5910    -4.8470 ha         1 LVP       0.132000
     24 H8         -16.2770   -16.5070     5.6690 h4         1 LVP       0.053100
@<TRIPOS>BOND
     1     1     4 1   
     2     1     7 1   
     3     1    17 1   
     4     2     3 ar  
     5     2     7 1   
     6     2    12 ar  
     7     3     8 ar  
     8     3    18 1   
     9     4     5 1   
    10     4     9 2   
    11     5     6 2   
    12     5    16 1   
    13     6    13 1   
    14     6    19 1   
    15     7    20 1   
    16     8    10 ar  
    17     8    21 1   
    18    10    11 ar  
    19    10    22 1   
    20    11    12 ar  
    21    11    23 1   
    22    12    14 1   
    23    13    15 2   
    24    13    24 1   
    25    15    16 1   
@<TRIPOS>SUBSTRUCTURE
     1 LVP         1 TEMP              0 ****  ****    0 ROOT
