@<TRIPOS>MOLECULE
LVP
   24    25     1     0     0
SMALL
abcg2


@<TRIPOS>ATOM
      1 N1         -18.3240   -18.3730     0.6180 ns         1 LVP      -0.355300
      2 C4         -17.8880   -19.2980    -1.5110 ca         1 LVP       0.230000
      3 C5         -16.8820   -20.1420    -1.0480 ca         1 LVP      -0.121000
      4 C6         -17.3800   -17.4500     0.9030 c          1 LVP       0.512600
      5 C7         -17.0470   -17.2950     2.3370 cc         1 LVP       0.100500
      6 C8         -16.1520   -16.4770     2.9360 cd         1 LVP      -0.164000
      7 N          -18.7420   -18.5890    -0.6660 nu         1 LVP      -0.668200
      8 C          -16.1020   -20.8680    -1.9390 ca         1 LVP      -0.095000
      9 O          -16.8150   -16.7750     0.0680 o          1 LVP      -0.559100
     10 C1         -16.3080   -20.7710    -3.3060 ca         1 LVP      -0.112000
     11 C2         -17.3110   -19.9360    -3.7850 ca         1 LVP      -0.118000
     12 C3         -18.0750   -19.2240    -2.8890 ca         1 LVP       0.126000
     13 C9         -16.3010   -16.7960     4.3060 cd         1 LVP       0.248900
     14 F          -19.0470   -18.4090    -3.3480 f          1 LVP      -0.185000
     15 N2         -17.2030   -17.7150     4.4890 nc         1 LVP      -0.337300
     16 O1         -17.6740   -18.0320     3.2570 os         1 LVP      -0.077700
     17 H1         -18.8140   -18.8820     1.3380 hn         1 LVP       0.371500
     18 H2         -16.7060   -20.2370     0.0150 ha         1 LVP       0.122000
     19 H3         -15.4880   -15.7610     2.4840 ha         1 LVP       0.173000
     20 H4         -19.1840   -17.7770    -1.0740 hn         1 LVP       0.485000
     21 H5         -15.3250   -21.5130    -1.5510 ha         1 LVP       0.118000
     22 H6         -15.7000   -21.3370    -3.9990 ha         1 LVP       0.121000
     23 H7         -17.5000   -19.8350    -4.8460 ha         1 LVP       0.132000
     24 H8         -15.7770   -16.3830     5.1540 h4         1 LVP       0.053100
@<TRIPOS>BOND
     1     1     4 1   
     2     1     7 1   
     3     1    17 1   
     4     2     3 ar  
     5     2     7 1   
     6     2    12 ar  
     7     3     8 ar  
     8     3    18 1   
     9     4     5 1   
    10     4     9 2   
    11     5     6 2   
    12     5    16 1   
    13     6    13 1   
    14     6    19 1   
    15     7    20 1   
    16     8    10 ar  
    17     8    21 1   
    18    10    11 ar  
    19    10    22 1   
    20    11    12 ar  
    21    11    23 1   
    22    12    14 1   
    23    13    15 2   
    24    13    24 1   
    25    15    16 1   
@<TRIPOS>SUBSTRUCTURE
     1 LVP         1 TEMP              0 ****  ****    0 ROOT
