@<TRIPOS>MOLECULE
LVS
   85    85     1     0     0
SMALL
bcc


@<TRIPOS>ATOM
      1 CB1          6.9290    -1.7880     1.9210 c3         1 LVS      -0.082400
      2 CG1          6.5020    -0.7540     0.8700 c3         1 LVS      -0.052700
      3 CD1          5.0150    -0.4170     0.8900 c3         1 LVS      -0.093100
      4 CD2          6.9600    -1.0830    -0.5500 c3         1 LVS      -0.093100
      5 C1           4.8190    -3.2060     2.3810 c          1 LVS       0.666100
      6 O1           3.9330    -3.6500     1.6650 o          1 LVS      -0.622100
      7 N1           6.3710    -3.8900     0.6840 ns         1 LVS      -0.557900
      8 CA1          6.2850    -3.1870     1.9380 c3         1 LVS       0.041700
      9 N2           4.6020    -2.7400     3.6180 ns         1 LVS      -0.559900
     10 CA2          3.2920    -2.6720     4.2350 c3         1 LVS       0.039700
     11 CB2          3.4530    -2.9080     5.7380 c3         1 LVS      -0.080400
     12 CG2          2.1760    -3.0420     6.5780 c3         1 LVS      -0.055700
     13 CD3          1.1890    -4.0470     5.9920 c3         1 LVS      -0.091600
     14 CD4          1.4910    -1.7140     6.8860 c3         1 LVS      -0.091600
     15 C2           2.6850    -1.3070     3.9070 c          1 LVS       0.655100
     16 O2           3.2590    -0.2750     4.2100 o          1 LVS      -0.607100
     17 N3           1.5160    -1.3330     3.2440 ns         1 LVS      -0.563900
     18 CA3          0.8150    -0.1230     2.8560 c3         1 LVS       0.131900
     19 CS           0.1700     0.4710     4.0770 c2         1 LVS      -0.027200
     20 CB3         -0.2520    -0.4000     1.7980 c3         1 LVS      -0.083400
     21 CG3          0.2330    -0.8180     0.4030 c3         1 LVS      -0.056700
     22 CD5          1.2360     0.1720    -0.1820 c3         1 LVS      -0.093600
     23 CD6          0.7600    -2.2480     0.3230 c3         1 LVS      -0.093600
     24 C11          1.0270     2.3040     7.2270 c3         1 LVS      -0.223300
     25 S           -0.2740     2.2870     6.0170 sy         1 LVS       1.072900
     26 O7          -0.6630     3.6690     5.7390 o          1 LVS      -0.598800
     27 O8          -1.3040     1.3480     6.4600 o          1 LVS      -0.598800
     28 C12          0.5150     1.6450     4.5810 ce         1 LVS      -0.332100
     29 C3           7.5010    -4.4360     0.2230 c          1 LVS       0.670100
     30 C4           7.3820    -5.1300    -1.1260 c3         1 LVS      -0.107100
     31 C5           8.3940    -4.5780    -2.0860 ca         1 LVS      -0.126300
     32 C6           9.7090    -5.0080    -2.0650 ca         1 LVS       0.008000
     33 C7          10.6470    -4.4410    -2.9130 ca         1 LVS      -0.221200
     34 C8          10.3180    -3.4370    -3.8360 ca         1 LVS       0.243100
     35 C9           8.9800    -3.0260    -3.8450 ca         1 LVS      -0.065100
     36 C10          8.0440    -3.5800    -2.9890 ca         1 LVS      -0.016000
     37 N4          12.0100    -4.9310    -2.8170 no         1 LVS       0.324200
     38 O3          12.9140    -4.1480    -2.9700 o          1 LVS      -0.197000
     39 O4          12.1610    -6.1040    -2.5620 o          1 LVS      -0.197000
     40 O5          11.2560    -2.9740    -4.6540 oh         1 LVS      -0.449100
     41 O6           8.5680    -4.3920     0.8180 o          1 LVS      -0.604100
     42 I            8.3550    -1.5230    -5.1740 i          1 LVS      -0.149900
     43 HB11         8.0060    -1.9420     1.8270 hc         1 LVS       0.056200
     44 HB12         6.7910    -1.3490     2.9130 hc         1 LVS       0.056200
     45 HG1          7.0390     0.1550     1.1650 hc         1 LVS       0.047700
     46 HD11         4.8110     0.4350     0.2390 hc         1 LVS       0.035867
     47 HD12         4.6660    -0.1600     1.8910 hc         1 LVS       0.035867
     48 HD13         4.4060    -1.2440     0.5220 hc         1 LVS       0.035867
     49 HD21         6.3600    -1.8720    -1.0020 hc         1 LVS       0.035867
     50 HD22         6.8670    -0.2040    -1.1910 hc         1 LVS       0.035867
     51 HD23         8.0040    -1.4010    -0.5780 hc         1 LVS       0.035867
     52 HN1          5.5150    -3.9900     0.1590 hn         1 LVS       0.340500
     53 HA1          6.8350    -3.7610     2.6920 h1         1 LVS       0.077700
     54 HN2          5.3780    -2.3690     4.1460 hn         1 LVS       0.329500
     55 HA2          2.6900    -3.4730     3.8030 h1         1 LVS       0.083700
     56 HB21         4.0800    -2.1150     6.1590 hc         1 LVS       0.055200
     57 HB22         4.0220    -3.8360     5.8360 hc         1 LVS       0.055200
     58 HG2          2.5160    -3.4470     7.5360 hc         1 LVS       0.051700
     59 HD31         0.3860    -4.2540     6.7010 hc         1 LVS       0.036200
     60 HD32         1.6730    -4.9950     5.7500 hc         1 LVS       0.036200
     61 HD33         0.7150    -3.6750     5.0800 hc         1 LVS       0.036200
     62 HD41         1.0460    -1.2610     6.0010 hc         1 LVS       0.036200
     63 HD42         0.6860    -1.8590     7.6070 hc         1 LVS       0.036200
     64 HD43         2.1920    -0.9950     7.3140 hc         1 LVS       0.036200
     65 HN3          1.0870    -2.2220     3.0420 hn         1 LVS       0.327500
     66 HA3          1.5460     0.5840     2.4590 h1         1 LVS       0.084700
     67 HCS         -0.6050    -0.1280     4.5460 ha         1 LVS       0.147000
     68 HB31        -0.9550    -1.1470     2.1820 hc         1 LVS       0.051700
     69 HB32        -0.8280     0.5230     1.6920 hc         1 LVS       0.051700
     70 HG3         -0.6630    -0.7790    -0.2250 hc         1 LVS       0.046700
     71 HD51         0.8560     1.1950    -0.1490 hc         1 LVS       0.037700
     72 HD52         1.4510    -0.0700    -1.2240 hc         1 LVS       0.037700
     73 HD53         2.1860     0.1530     0.3560 hc         1 LVS       0.037700
     74 HD61         0.0630    -2.9560     0.7790 hc         1 LVS       0.037700
     75 HD62         0.8840    -2.5430    -0.7200 hc         1 LVS       0.037700
     76 HD63         1.7300    -2.3680     0.8080 hc         1 LVS       0.037700
     77 H1'1         1.8540     2.9100     6.8640 h1         1 LVS       0.103700
     78 H1'2         0.6210     2.7400     8.1390 h1         1 LVS       0.103700
     79 H1'3         1.3590     1.2850     7.4140 h1         1 LVS       0.103700
     80 H2           1.2870     2.2800     4.1610 h4         1 LVS       0.179000
     81 HC41         6.3760    -5.0390    -1.5380 hc         1 LVS       0.073200
     82 HC42         7.5640    -6.1950    -0.9620 hc         1 LVS       0.073200
     83 HC6         10.0110    -5.7870    -1.3790 ha         1 LVS       0.180000
     84 H10          7.0190    -3.2360    -3.0230 ha         1 LVS       0.150000
     85 HO5         10.8880    -2.4030    -5.3420 ho         1 LVS       0.453000
@<TRIPOS>BOND
     1     1     2 1   
     2     1     8 1   
     3     1    43 1   
     4     1    44 1   
     5     2     3 1   
     6     2     4 1   
     7     2    45 1   
     8     3    46 1   
     9     3    47 1   
    10     3    48 1   
    11     4    49 1   
    12     4    50 1   
    13     4    51 1   
    14     5     6 2   
    15     5     8 1   
    16     5     9 1   
    17     7     8 1   
    18     7    29 1   
    19     7    52 1   
    20     8    53 1   
    21     9    10 1   
    22     9    54 1   
    23    10    11 1   
    24    10    15 1   
    25    10    55 1   
    26    11    12 1   
    27    11    56 1   
    28    11    57 1   
    29    12    13 1   
    30    12    14 1   
    31    12    58 1   
    32    13    59 1   
    33    13    60 1   
    34    13    61 1   
    35    14    62 1   
    36    14    63 1   
    37    14    64 1   
    38    15    16 2   
    39    15    17 1   
    40    17    18 1   
    41    17    65 1   
    42    18    19 1   
    43    18    20 1   
    44    18    66 1   
    45    19    28 2   
    46    19    67 1   
    47    20    21 1   
    48    20    68 1   
    49    20    69 1   
    50    21    22 1   
    51    21    23 1   
    52    21    70 1   
    53    22    71 1   
    54    22    72 1   
    55    22    73 1   
    56    23    74 1   
    57    23    75 1   
    58    23    76 1   
    59    24    25 1   
    60    24    77 1   
    61    24    78 1   
    62    24    79 1   
    63    25    26 2   
    64    25    27 2   
    65    25    28 1   
    66    28    80 1   
    67    29    30 1   
    68    29    41 2   
    69    30    31 1   
    70    30    81 1   
    71    30    82 1   
    72    31    32 ar  
    73    31    36 ar  
    74    32    33 ar  
    75    32    83 1   
    76    33    34 ar  
    77    33    37 1   
    78    34    35 ar  
    79    34    40 1   
    80    35    36 ar  
    81    35    42 1   
    82    36    84 1   
    83    37    38 1   
    84    37    39 1   
    85    40    85 1   
@<TRIPOS>SUBSTRUCTURE
     1 LVS         1 TEMP              0 ****  ****    0 ROOT
