@<TRIPOS>MOLECULE
LVS
   85    85     1     0     0
SMALL
No Charge or Current Charge


@<TRIPOS>ATOM
      1 CB1          6.9590    -1.5780     1.2930 c3         1 LVS      -0.082400
      2 CG1          6.2710    -1.3250    -0.0880 c3         1 LVS      -0.052700
      3 CD1          4.7310    -1.2370    -0.0200 c3         1 LVS      -0.093100
      4 CD2          6.7320    -2.2830    -1.2110 c3         1 LVS      -0.093100
      5 C1           5.2480    -3.1880     2.4770 c          1 LVS       0.599100
      6 O1           4.6300    -4.2040     2.1830 o          1 LVS      -0.622100
      7 N1           7.2440    -4.1050     1.2920 ns         1 LVS      -0.490900
      8 CA1          6.7220    -2.9370     2.0350 c3         1 LVS       0.041700
      9 N2           4.6720    -2.1830     3.2250 ns         1 LVS      -0.492900
     10 CA2          3.2910    -2.2020     3.7550 c3         1 LVS       0.039700
     11 CB2          3.2970    -2.9380     5.1280 c3         1 LVS      -0.080400
     12 CG2          1.9330    -3.2670     5.8030 c3         1 LVS      -0.055700
     13 CD3          0.9570    -4.0180     4.8680 c3         1 LVS      -0.091600
     14 CD4          1.2600    -2.0620     6.4980 c3         1 LVS      -0.091600
     15 C2           2.7700    -0.7380     3.8070 c          1 LVS       0.588100
     16 O2           3.4890     0.2060     4.1090 o          1 LVS      -0.607100
     17 N3           1.4570    -0.5620     3.4210 ns         1 LVS      -0.496900
     18 CA3          0.8220     0.7360     3.1980 c3         1 LVS       0.131900
     19 CS           0.0100     1.1140     4.4220 c2         1 LVS      -0.077200
     20 CB3         -0.0340     0.7510     1.9010 c3         1 LVS      -0.083400
     21 CG3          0.7010     0.4950     0.5490 c3         1 LVS      -0.056700
     22 CD5          1.8940     1.4510     0.3210 c3         1 LVS      -0.093600
     23 CD6          1.0990    -0.9820     0.3140 c3         1 LVS      -0.093600
     24 C11         -0.0780     0.8490     8.2230 c3         1 LVS      -0.334100
     25 S           -0.4730     2.0700     6.9770 sy         1 LVS       1.042100
     26 O7           0.0430     3.3480     7.4810 o          1 LVS      -0.528000
     27 O8          -1.8900     1.9040     6.6310 o          1 LVS      -0.528000
     28 C12          0.5310     1.5790     5.5840 ce         1 LVS      -0.382100
     29 C3           8.5740    -4.3830     1.0700 c          1 LVS       0.603100
     30 C4           8.8420    -5.6010     0.1790 c3         1 LVS      -0.107100
     31 C5           9.0540    -5.1620    -1.2700 ca         1 LVS      -0.126300
     32 C6          10.2520    -4.5220    -1.6460 ca         1 LVS       0.026000
     33 C7          10.4410    -4.0760    -2.9730 ca         1 LVS      -0.221200
     34 C8           9.4290    -4.2870    -3.9320 ca         1 LVS       0.243100
     35 C9           8.2320    -4.9300    -3.5540 ca         1 LVS       0.072000
     36 C10          8.0460    -5.3650    -2.2320 ca         1 LVS       0.002000
     37 N4          11.7080    -3.3960    -3.3320 no         1 LVS       0.704200
     38 O3          11.6380    -2.3140    -3.9300 o          1 LVS      -0.387000
     39 O4          12.7500    -3.8310    -2.8250 o          1 LVS      -0.387000
     40 O5           9.6030    -3.9030    -5.2330 oh         1 LVS      -0.488100
     41 O6           9.4740    -3.6890     1.5210 o          1 LVS      -0.604100
     42 I            6.6490    -5.2580    -5.0070 i          1 LVS      -0.287000
     43 HB11         8.0390    -1.4510     1.1540 hc         1 LVS       0.056200
     44 HB12         6.6720    -0.7610     1.9670 hc         1 LVS       0.056200
     45 HG1          6.6100    -0.3270    -0.3950 hc         1 LVS       0.047700
     46 HD11         4.3290    -0.8350    -0.9580 hc         1 LVS       0.035867
     47 HD12         4.4150    -0.5710     0.7920 hc         1 LVS       0.035867
     48 HD13         4.2790    -2.2230     0.1380 hc         1 LVS       0.035867
     49 HD21         6.3120    -3.2850    -1.0750 hc         1 LVS       0.035867
     50 HD22         6.4000    -1.9140    -2.1890 hc         1 LVS       0.035867
     51 HD23         7.8260    -2.3590    -1.2350 hc         1 LVS       0.035867
     52 HN1          6.5690    -4.7520     0.8980 hn         1 LVS       0.340500
     53 HA1          7.2870    -2.8820     2.9750 h1         1 LVS       0.077700
     54 HN2          5.2420    -1.3670     3.4190 hn         1 LVS       0.329500
     55 HA2          2.6600    -2.7550     3.0470 h1         1 LVS       0.083700
     56 HB21         3.9140    -2.3670     5.8330 hc         1 LVS       0.055200
     57 HB22         3.8200    -3.8920     4.9880 hc         1 LVS       0.055200
     58 HG2          2.1750    -3.9680     6.6120 hc         1 LVS       0.051700
     59 HD31         0.0850    -4.3740     5.4310 hc         1 LVS       0.036200
     60 HD32         1.4460    -4.8890     4.4150 hc         1 LVS       0.036200
     61 HD33         0.5940    -3.3680     4.0630 hc         1 LVS       0.036200
     62 HD41         0.7960    -1.3820     5.7800 hc         1 LVS       0.036200
     63 HD42         0.4700    -2.4110     7.1740 hc         1 LVS       0.036200
     64 HD43         1.9860    -1.4970     7.0950 hc         1 LVS       0.036200
     65 HN3          0.9310    -1.3950     3.1880 hn         1 LVS       0.327500
     66 HA3          1.6070     1.4940     3.0800 h1         1 LVS       0.084700
     67 HCS         -1.0690     0.9960     4.3000 ha         1 LVS       0.197000
     68 HB31        -0.8510     0.0260     2.0020 hc         1 LVS       0.051700
     69 HB32        -0.5160     1.7350     1.8350 hc         1 LVS       0.051700
     70 HG3         -0.0330     0.7300    -0.2330 hc         1 LVS       0.046700
     71 HD51         1.5840     2.4960     0.4430 hc         1 LVS       0.037700
     72 HD52         2.2930     1.3340    -0.6940 hc         1 LVS       0.037700
     73 HD53         2.7070     1.2480     1.0280 hc         1 LVS       0.037700
     74 HD61         0.2520    -1.6510     0.5070 hc         1 LVS       0.037700
     75 HD62         1.4120    -1.1310    -0.7270 hc         1 LVS       0.037700
     76 HD63         1.9340    -1.2850     0.9540 hc         1 LVS       0.037700
     77 H1'1         1.0030     0.8670     8.3930 h1         1 LVS       0.103700
     78 H1'2        -0.6190     1.1090     9.1380 h1         1 LVS       0.103700
     79 H1'3        -0.3980    -0.1300     7.8520 h1         1 LVS       0.103700
     80 H2           1.5940     1.7330     5.7710 h4         1 LVS       0.229000
     81 HC41         7.9850    -6.2840     0.2260 hc         1 LVS       0.073200
     82 HC42         9.7400    -6.1150     0.5410 hc         1 LVS       0.073200
     83 HC6         11.0280    -4.3570    -0.8980 ha         1 LVS       0.162000
     84 H10          7.1140    -5.8530    -1.9600 ha         1 LVS       0.132000
     85 HO5          8.7900    -4.1430    -5.7290 ho         1 LVS       0.492000
@<TRIPOS>BOND
     1     1     2 1   
     2     1     8 1   
     3     1    43 1   
     4     1    44 1   
     5     2     3 1   
     6     2     4 1   
     7     2    45 1   
     8     3    46 1   
     9     3    47 1   
    10     3    48 1   
    11     4    49 1   
    12     4    50 1   
    13     4    51 1   
    14     5     6 2   
    15     5     8 1   
    16     5     9 1   
    17     7     8 1   
    18     7    29 1   
    19     7    52 1   
    20     8    53 1   
    21     9    10 1   
    22     9    54 1   
    23    10    11 1   
    24    10    15 1   
    25    10    55 1   
    26    11    12 1   
    27    11    56 1   
    28    11    57 1   
    29    12    13 1   
    30    12    14 1   
    31    12    58 1   
    32    13    59 1   
    33    13    60 1   
    34    13    61 1   
    35    14    62 1   
    36    14    63 1   
    37    14    64 1   
    38    15    16 2   
    39    15    17 1   
    40    17    18 1   
    41    17    65 1   
    42    18    19 1   
    43    18    20 1   
    44    18    66 1   
    45    19    28 2   
    46    19    67 1   
    47    20    21 1   
    48    20    68 1   
    49    20    69 1   
    50    21    22 1   
    51    21    23 1   
    52    21    70 1   
    53    22    71 1   
    54    22    72 1   
    55    22    73 1   
    56    23    74 1   
    57    23    75 1   
    58    23    76 1   
    59    24    25 1   
    60    24    77 1   
    61    24    78 1   
    62    24    79 1   
    63    25    26 2   
    64    25    27 2   
    65    25    28 1   
    66    28    80 1   
    67    29    30 1   
    68    29    41 2   
    69    30    31 1   
    70    30    81 1   
    71    30    82 1   
    72    31    32 ar  
    73    31    36 ar  
    74    32    33 ar  
    75    32    83 1   
    76    33    34 ar  
    77    33    37 1   
    78    34    35 ar  
    79    34    40 1   
    80    35    36 ar  
    81    35    42 1   
    82    36    84 1   
    83    37    38 1   
    84    37    39 1   
    85    40    85 1   
@<TRIPOS>SUBSTRUCTURE
     1 LVS         1 TEMP              0 ****  ****    0 ROOT
