@<TRIPOS>MOLECULE
LVT
   88    92     1     0     0
SMALL
No Charge or Current Charge


@<TRIPOS>ATOM
      1 C1         -42.6660    16.2990    -7.0620 c3         1 LVT       0.041450
      2 C2         -44.0210     9.9720    -5.1110 ca         1 LVT      -0.264250
      3 C3         -44.2340    10.3360    -3.7670 ca         1 LVT      -0.022875
      4 C4         -43.2870    11.1040    -3.0620 ca         1 LVT      -0.134550
      5 C5         -42.0930    11.4960    -3.7160 ca         1 LVT       0.203850
      6 C6         -41.8960    11.1940    -5.0870 ca         1 LVT      -0.134550
      7 C7         -42.8590    10.4240    -5.7670 ca         1 LVT      -0.022875
      8 C10        -42.0510    14.5910    -8.8170 ca         1 LVT      -0.022875
      9 C11        -41.6150    13.3180    -9.2360 ca         1 LVT      -0.264250
     10 C12        -41.1650    12.3970    -8.2710 ca         1 LVT      -0.022875
     11 C13        -41.0980    12.7530    -6.9110 ca         1 LVT      -0.134550
     12 O3         -48.7380    10.8240    -1.0040 o          1 LVT      -0.733450
     13 C21        -38.8670    15.2960    -5.2660 c          1 LVT       0.715000
     14 C14        -41.4450    14.0680    -6.5140 ca         1 LVT       0.203850
     15 O2         -49.7560    13.0320    -1.5780 o          1 LVT      -0.733450
     16 C16        -40.6810    11.7010    -5.8740 c3         1 LVT       0.041450
     17 C17        -43.6070    11.5000    -1.6150 c3         1 LVT       0.041450
     18 C18        -42.7900    15.4360    -0.0320 c          1 LVT       0.715000
     19 C19        -42.3580    14.6460    -1.3170 c3         1 LVT       0.041100
     20 C20        -43.2670    18.3620    -4.1700 c3         1 LVT       0.041100
     21 C15        -41.9970    14.9750    -7.4610 ca         1 LVT      -0.134550
     22 C22        -42.1520    18.9880    -3.2720 c          1 LVT       0.715000
     23 C23        -40.3420    15.4230    -4.7440 c3         1 LVT       0.041100
     24 C24        -40.0900    11.2890    -2.3720 c3         1 LVT       0.041100
     25 C25        -44.7540    12.5200    -1.5680 ca         1 LVT      -0.134550
     26 C26        -44.6170    13.8660    -2.0080 ca         1 LVT       0.203850
     27 C27        -45.7660    14.6700    -2.2000 ca         1 LVT      -0.134550
     28 C28        -47.0290    14.1820    -1.8130 ca         1 LVT      -0.022875
     29 C29        -47.1680    12.8860    -1.2800 ca         1 LVT      -0.264250
     30 C30        -46.0320    12.0590    -1.1860 ca         1 LVT      -0.022875
     31 C31        -38.9680    12.0850    -1.6320 c          1 LVT       0.715000
     32 C42        -45.6600    16.0550    -2.8540 c3         1 LVT       0.041450
     33 C43        -45.4350    15.9330    -4.3660 ca         1 LVT      -0.134550
     34 C44        -44.2080    16.2850    -4.9820 ca         1 LVT       0.203850
     35 C45        -44.0080    16.0460    -6.3640 ca         1 LVT      -0.134550
     36 C46        -45.0720    15.5360    -7.1330 ca         1 LVT      -0.022875
     37 C47        -46.3190    15.2430    -6.5460 ca         1 LVT      -0.264250
     38 C48        -46.4820    15.4250    -5.1590 ca         1 LVT      -0.022875
     39 O17        -41.2810    14.4000    -5.1840 os         1 LVT      -0.306100
     40 O19        -43.8920    15.9630     0.0460 o          1 LVT      -0.757000
     41 O20        -41.9910    15.4750     0.8960 o          1 LVT      -0.757000
     42 O21        -43.2300    16.9180    -4.2480 os         1 LVT      -0.306100
     43 O22        -38.1170    16.2420    -5.0580 o          1 LVT      -0.757000
     44 O23        -38.4970    14.3030    -5.8790 o          1 LVT      -0.757000
     45 O24        -41.3570    18.2680    -2.6830 o          1 LVT      -0.757000
     46 O25        -42.8060    13.6270   -11.5340 o          1 LVT      -0.733450
     47 O26        -41.8250    11.3950   -10.9870 o          1 LVT      -0.733450
     48 O27        -40.3370    13.3280   -11.4810 o          1 LVT      -0.733450
     49 O28        -42.1150    20.2100    -3.1920 o          1 LVT      -0.757000
     50 O30        -48.5510    13.8940    -6.6390 o          1 LVT      -0.733450
     51 O31        -48.3030    15.9310    -8.0470 o          1 LVT      -0.733450
     52 O32        -47.0480    13.8660    -8.6340 o          1 LVT      -0.733450
     53 O33        -38.9700    13.3090    -1.6400 o          1 LVT      -0.757000
     54 O34        -38.1060    11.4350    -1.0520 o          1 LVT      -0.757000
     55 O35        -46.5220     9.2950    -5.3880 o          1 LVT      -0.733450
     56 O36        -45.0440     9.2520    -7.4010 o          1 LVT      -0.733450
     57 O37        -44.7640     7.5500    -5.6080 o          1 LVT      -0.733450
     58 O4         -48.8170    12.6410     0.6930 o          1 LVT      -0.733450
     59 O5         -41.0940    12.1200    -3.0020 os         1 LVT      -0.306100
     60 S1         -48.8300    12.2660    -0.7300 s6         1 LVT       1.278850
     61 S24        -41.6570    12.8560   -11.0340 s6         1 LVT       1.278850
     62 S29        -47.7310    14.6530    -7.5960 s6         1 LVT       1.278850
     63 H1         -42.0020    16.9290    -6.4710 hc         1 LVT       0.040325
     64 H2         -42.8550    16.9020    -7.9590 hc         1 LVT       0.040325
     65 H3         -45.1390    10.0100    -3.2590 ha         1 LVT       0.101875
     66 H4         -42.6950    10.1700    -6.8110 ha         1 LVT       0.101875
     67 H5         -42.4540    15.2830    -9.5530 ha         1 LVT       0.101875
     68 H6         -40.8660    11.3970    -8.5760 ha         1 LVT       0.101875
     69 H7         -40.1960    10.8520    -6.3710 hc         1 LVT       0.040325
     70 H8         -39.9130    12.1090    -5.2100 hc         1 LVT       0.040325
     71 H9         -43.8950    10.5940    -1.0680 hc         1 LVT       0.040325
     72 H10        -42.7270    11.8510    -1.0760 hc         1 LVT       0.040325
     73 H11        -41.9130    13.7070    -0.9820 h1         1 LVT       0.017325
     74 H12        -41.5440    15.2200    -1.7750 h1         1 LVT       0.017325
     75 H13        -43.1670    18.7920    -5.1750 h1         1 LVT       0.017325
     76 H14        -44.2350    18.6880    -3.7670 h1         1 LVT       0.017325
     77 H15        -40.6900    16.4240    -5.0090 h1         1 LVT       0.017325
     78 H16        -40.2870    15.4020    -3.6490 h1         1 LVT       0.017325
     79 H17        -40.5650    10.6220    -1.6410 h1         1 LVT       0.017325
     80 H18        -39.6030    10.6580    -3.1270 h1         1 LVT       0.017325
     81 H19        -47.9050    14.8150    -1.9310 ha         1 LVT       0.101875
     82 H20        -46.1460    11.0370    -0.8300 ha         1 LVT       0.101875
     83 H21        -44.8670    16.6380    -2.3750 hc         1 LVT       0.040325
     84 H22        -46.5760    16.6300    -2.6730 hc         1 LVT       0.040325
     85 H23        -44.9300    15.3760    -8.1990 ha         1 LVT       0.101875
     86 H24        -47.4320    15.1800    -4.6890 ha         1 LVT       0.101875
     87 O1         -43.3890    14.4170    -2.3200 os         1 LVT      -0.306100
     88 S2         -45.2440     8.8870    -5.9910 s6         1 LVT       1.278850
@<TRIPOS>BOND
     1     1    21 1   
     2     1    35 1   
     3     1    63 1   
     4     1    64 1   
     5     2     3 ar  
     6     2     7 ar  
     7     2    88 1   
     8     3     4 ar  
     9     3    65 1   
    10     4     5 ar  
    11     4    17 1   
    12     5     6 ar  
    13     5    59 1   
    14     6     7 ar  
    15     6    16 1   
    16     7    66 1   
    17     8     9 ar  
    18     8    21 ar  
    19     8    67 1   
    20     9    10 ar  
    21     9    61 1   
    22    10    11 ar  
    23    10    68 1   
    24    11    14 ar  
    25    11    16 1   
    26    12    60 1   
    27    13    23 1   
    28    13    43 1   
    29    13    44 1   
    30    14    21 ar  
    31    14    39 1   
    32    15    60 1   
    33    16    69 1   
    34    16    70 1   
    35    17    25 1   
    36    17    71 1   
    37    17    72 1   
    38    18    19 1   
    39    18    40 1   
    40    18    41 1   
    41    19    73 1   
    42    19    74 1   
    43    19    87 1   
    44    20    22 1   
    45    20    42 1   
    46    20    75 1   
    47    20    76 1   
    48    22    45 1   
    49    22    49 1   
    50    23    39 1   
    51    23    77 1   
    52    23    78 1   
    53    24    31 1   
    54    24    59 1   
    55    24    79 1   
    56    24    80 1   
    57    25    26 ar  
    58    25    30 ar  
    59    26    27 ar  
    60    26    87 1   
    61    27    28 ar  
    62    27    32 1   
    63    28    29 ar  
    64    28    81 1   
    65    29    30 ar  
    66    29    60 1   
    67    30    82 1   
    68    31    53 1   
    69    31    54 1   
    70    32    33 1   
    71    32    83 1   
    72    32    84 1   
    73    33    34 ar  
    74    33    38 ar  
    75    34    35 ar  
    76    34    42 1   
    77    35    36 ar  
    78    36    37 ar  
    79    36    85 1   
    80    37    38 ar  
    81    37    62 1   
    82    38    86 1   
    83    46    61 1   
    84    47    61 1   
    85    48    61 1   
    86    50    62 1   
    87    51    62 1   
    88    52    62 1   
    89    55    88 1   
    90    56    88 1   
    91    57    88 1   
    92    58    60 1   
@<TRIPOS>SUBSTRUCTURE
     1 LVT         1 TEMP              0 ****  ****    0 ROOT
