@<TRIPOS>MOLECULE
LVT
   88    92     1     0     0
SMALL
abcg2


@<TRIPOS>ATOM
      1 C1         -42.6480    16.2990    -6.9880 c3         1 LVT       0.041450
      2 C2         -44.2110    10.3810    -5.1990 ca         1 LVT      -0.264250
      3 C3         -44.3660    10.6470    -3.8500 ca         1 LVT      -0.022875
      4 C4         -43.3440    11.2410    -3.1180 ca         1 LVT      -0.134550
      5 C5         -42.1430    11.5500    -3.7650 ca         1 LVT       0.203850
      6 C6         -41.9960    11.3410    -5.1430 ca         1 LVT      -0.134550
      7 C7         -43.0400    10.7520    -5.8430 ca         1 LVT      -0.022875
      8 C10        -41.9630    14.6980    -8.7810 ca         1 LVT      -0.022875
      9 C11        -41.5440    13.4500    -9.2130 ca         1 LVT      -0.264250
     10 C12        -41.1420    12.5060    -8.2780 ca         1 LVT      -0.022875
     11 C13        -41.0870    12.8200    -6.9260 ca         1 LVT      -0.134550
     12 O3         -48.6620    10.9170    -0.7070 o          1 LVT      -0.733450
     13 C21        -38.9290    15.0850    -4.8670 c          1 LVT       0.715000
     14 C14        -41.4170    14.1170    -6.5160 ca         1 LVT       0.203850
     15 O2         -49.6630    12.8950    -1.7850 o          1 LVT      -0.733450
     16 C16        -40.7570    11.7620    -5.9040 c3         1 LVT       0.041450
     17 C17        -43.5980    11.5540    -1.6560 c3         1 LVT       0.041450
     18 C18        -42.5330    15.8120    -0.2740 c          1 LVT       0.715000
     19 C19        -42.4170    14.5430    -1.1400 c3         1 LVT       0.041100
     20 C20        -43.5070    18.4020    -4.2890 c3         1 LVT       0.041100
     21 C15        -41.9380    15.0400    -7.4320 ca         1 LVT      -0.134550
     22 C22        -42.4390    19.1890    -3.5050 c          1 LVT       0.715000
     23 C23        -40.4340    15.3870    -4.7420 c3         1 LVT       0.041100
     24 C24        -40.1920    11.0950    -2.5780 c3         1 LVT       0.041100
     25 C25        -44.7250    12.5560    -1.5310 ca         1 LVT      -0.134550
     26 C26        -44.5700    13.8950    -1.9100 ca         1 LVT       0.203850
     27 C27        -45.6920    14.7100    -2.1130 ca         1 LVT      -0.134550
     28 C28        -46.9460    14.2210    -1.7780 ca         1 LVT      -0.022875
     29 C29        -47.1030    12.9320    -1.2860 ca         1 LVT      -0.264250
     30 C30        -45.9980    12.1020    -1.1900 ca         1 LVT      -0.022875
     31 C31        -38.9960    11.7400    -1.8550 c          1 LVT       0.715000
     32 C42        -45.5520    16.0370    -2.8090 c3         1 LVT       0.041450
     33 C43        -45.3290    15.8140    -4.2900 ca         1 LVT      -0.134550
     34 C44        -44.1760    16.2650    -4.9430 ca         1 LVT       0.203850
     35 C45        -43.9380    15.9380    -6.2820 ca         1 LVT      -0.134550
     36 C46        -44.8950    15.2010    -6.9740 ca         1 LVT      -0.022875
     37 C47        -46.0590    14.7840    -6.3500 ca         1 LVT      -0.264250
     38 C48        -46.2610    15.0800    -5.0110 ca         1 LVT      -0.022875
     39 O17        -41.3480    14.3930    -5.1940 os         1 LVT      -0.306100
     40 O19        -43.4410    16.6320    -0.4860 o          1 LVT      -0.757000
     41 O20        -41.6490    15.8660     0.6040 o          1 LVT      -0.757000
     42 O21        -43.2630    17.0030    -4.2600 os         1 LVT      -0.306100
     43 O22        -38.2180    16.0420    -4.5020 o          1 LVT      -0.757000
     44 O23        -38.5510    13.9780    -5.2860 o          1 LVT      -0.757000
     45 O24        -41.5180    18.5640    -2.9570 o          1 LVT      -0.757000
     46 O25        -42.6360    13.7980   -11.5600 o          1 LVT      -0.733450
     47 O26        -41.6300    11.6080   -11.0570 o          1 LVT      -0.733450
     48 O27        -40.1910    13.5700   -11.4230 o          1 LVT      -0.733450
     49 O28        -42.6330    20.4210    -3.5150 o          1 LVT      -0.757000
     50 O30        -47.8510    12.9000    -6.2900 o          1 LVT      -0.733450
     51 O31        -48.3020    14.8900    -7.6650 o          1 LVT      -0.733450
     52 O32        -46.6170    13.2570    -8.3950 o          1 LVT      -0.733450
     53 O33        -38.9510    12.9760    -1.7590 o          1 LVT      -0.757000
     54 O34        -38.1730    10.9070    -1.4290 o          1 LVT      -0.757000
     55 O35        -46.7060     9.6390    -5.3250 o          1 LVT      -0.733450
     56 O36        -45.5010    10.0370    -7.4420 o          1 LVT      -0.733450
     57 O37        -44.9630     8.0710    -6.0720 o          1 LVT      -0.733450
     58 O4         -48.9220    13.0180     0.5530 o          1 LVT      -0.733450
     59 O5         -41.1110    12.0680    -3.0520 os         1 LVT      -0.306100
     60 S1         -48.7260    12.3890    -0.7650 s6         1 LVT       1.278850
     61 S24        -41.5000    13.0740   -10.9620 s6         1 LVT       1.278850
     62 S29        -47.3130    13.8780    -7.2530 s6         1 LVT       1.278850
     63 H1         -42.0290    16.9310    -6.3560 hc         1 LVT       0.040325
     64 H2         -42.8800    16.8930    -7.8750 hc         1 LVT       0.040325
     65 H3         -45.2930    10.3890    -3.3530 ha         1 LVT       0.101875
     66 H4         -42.9320    10.5860    -6.9090 ha         1 LVT       0.101875
     67 H5         -42.3600    15.4130    -9.4920 ha         1 LVT       0.101875
     68 H6         -40.8720    11.5060    -8.5960 ha         1 LVT       0.101875
     69 H7         -40.3480    10.8910    -6.4220 hc         1 LVT       0.040325
     70 H8         -39.9860    12.1390    -5.2390 hc         1 LVT       0.040325
     71 H9         -43.8980    10.6360    -1.1450 hc         1 LVT       0.040325
     72 H10        -42.6820    11.8820    -1.1710 hc         1 LVT       0.040325
     73 H11        -42.4600    13.6840    -0.4640 h1         1 LVT       0.017325
     74 H12        -41.4300    14.5160    -1.6030 h1         1 LVT       0.017325
     75 H13        -43.5240    18.7610    -5.3260 h1         1 LVT       0.017325
     76 H14        -44.4940    18.6250    -3.8640 h1         1 LVT       0.017325
     77 H15        -40.6210    16.3500    -5.2210 h1         1 LVT       0.017325
     78 H16        -40.6700    15.5260    -3.6860 h1         1 LVT       0.017325
     79 H17        -40.6940    10.4010    -1.8900 h1         1 LVT       0.017325
     80 H18        -39.8140    10.4890    -3.4120 h1         1 LVT       0.017325
     81 H19        -47.8110    14.8570    -1.9270 ha         1 LVT       0.101875
     82 H20        -46.1200    11.0710    -0.8810 ha         1 LVT       0.101875
     83 H21        -44.7330    16.5950    -2.3660 hc         1 LVT       0.040325
     84 H22        -46.4680    16.6160    -2.6650 hc         1 LVT       0.040325
     85 H23        -44.7120    14.9370    -8.0080 ha         1 LVT       0.101875
     86 H24        -47.1480    14.7150    -4.5060 ha         1 LVT       0.101875
     87 O1         -43.3500    14.3970    -2.2090 os         1 LVT      -0.306100
     88 S2         -45.4580     9.4590    -6.0870 s6         1 LVT       1.278850
@<TRIPOS>BOND
     1     1    21 1   
     2     1    35 1   
     3     1    63 1   
     4     1    64 1   
     5     2     3 ar  
     6     2     7 ar  
     7     2    88 1   
     8     3     4 ar  
     9     3    65 1   
    10     4     5 ar  
    11     4    17 1   
    12     5     6 ar  
    13     5    59 1   
    14     6     7 ar  
    15     6    16 1   
    16     7    66 1   
    17     8     9 ar  
    18     8    21 ar  
    19     8    67 1   
    20     9    10 ar  
    21     9    61 1   
    22    10    11 ar  
    23    10    68 1   
    24    11    14 ar  
    25    11    16 1   
    26    12    60 1   
    27    13    23 1   
    28    13    43 1   
    29    13    44 1   
    30    14    21 ar  
    31    14    39 1   
    32    15    60 1   
    33    16    69 1   
    34    16    70 1   
    35    17    25 1   
    36    17    71 1   
    37    17    72 1   
    38    18    19 1   
    39    18    40 1   
    40    18    41 1   
    41    19    73 1   
    42    19    74 1   
    43    19    87 1   
    44    20    22 1   
    45    20    42 1   
    46    20    75 1   
    47    20    76 1   
    48    22    45 1   
    49    22    49 1   
    50    23    39 1   
    51    23    77 1   
    52    23    78 1   
    53    24    31 1   
    54    24    59 1   
    55    24    79 1   
    56    24    80 1   
    57    25    26 ar  
    58    25    30 ar  
    59    26    27 ar  
    60    26    87 1   
    61    27    28 ar  
    62    27    32 1   
    63    28    29 ar  
    64    28    81 1   
    65    29    30 ar  
    66    29    60 1   
    67    30    82 1   
    68    31    53 1   
    69    31    54 1   
    70    32    33 1   
    71    32    83 1   
    72    32    84 1   
    73    33    34 ar  
    74    33    38 ar  
    75    34    35 ar  
    76    34    42 1   
    77    35    36 ar  
    78    36    37 ar  
    79    36    85 1   
    80    37    38 ar  
    81    37    62 1   
    82    38    86 1   
    83    46    61 1   
    84    47    61 1   
    85    48    61 1   
    86    50    62 1   
    87    51    62 1   
    88    52    62 1   
    89    55    88 1   
    90    56    88 1   
    91    57    88 1   
    92    58    60 1   
@<TRIPOS>SUBSTRUCTURE
     1 LVT         1 TEMP              0 ****  ****    0 ROOT
