@<TRIPOS>MOLECULE
LVU
   19    20     1     0     0
SMALL
No Charge or Current Charge


@<TRIPOS>ATOM
      1 Br1        104.3100  -175.9440   314.6620 br         1 LVU      -0.060100
      2 C8        -106.0610  -176.1250   313.8990 ca         1 LVU      -0.042900
      3 C          106.9580  -177.1320   314.3500 ca         1 LVU       0.031100
      4 Br        -106.4570  -178.3540   315.7420 br         1 LVU      -0.057100
      5 C7         106.4470  -175.2330   312.8730 ca         1 LVU      -0.002000
      6 C6        -107.7310  -175.3850   312.3310 ca         1 LVU      -0.216900
      7 C2         108.5860  -176.3490   312.7630 ca         1 LVU      -0.032200
      8 C1        -108.2430  -177.2510   313.7760 ca         1 LVU      -0.100000
      9 C3         108.4380  -174.6710   311.2940 cc         1 LVU       0.349900
     10 N1        -109.6690  -175.1730   311.1010 nd         1 LVU      -0.493100
     11 N          109.7450  -176.2220   312.0280 na         1 LVU      -0.048400
     12 C4        -107.9000  -173.5100   310.5130 c3         1 LVU      -0.018600
     13 C5         106.9310  -173.9000   309.4910 c1         1 LVU       0.296900
     14 N2        -106.1400  -174.1890   308.6860 n1         1 LVU      -0.447000
     15 H1         105.7680  -174.4590   312.5200 ha         1 LVU       0.140000
     16 H2        -108.9390  -178.0170   314.1110 ha         1 LVU       0.140000
     17 H4         107.4220  -172.7990   311.1940 hc         1 LVU       0.088200
     18 H5        -108.7210  -172.9730   310.0250 hc         1 LVU       0.088200
     19 H3         110.5800  -176.8000   312.1150 hn         1 LVU       0.386000
@<TRIPOS>BOND
     1     1     2 1   
     2     2     3 ar  
     3     2     5 ar  
     4     3     4 1   
     5     3     8 ar  
     6     5     6 ar  
     7     5    15 1   
     8     6     7 ar  
     9     6     9 1   
    10     7     8 ar  
    11     7    11 1   
    12     8    16 1   
    13     9    10 2   
    14     9    12 1   
    15    10    11 1   
    16    11    19 1   
    17    12    13 1   
    18    12    17 1   
    19    12    18 1   
    20    13    14 3   
@<TRIPOS>SUBSTRUCTURE
     1 LVU         1 TEMP              0 ****  ****    0 ROOT
