@<TRIPOS>MOLECULE
LVU
   19    20     1     0     0
SMALL
abcg2


@<TRIPOS>ATOM
      1 BR1       -104.3570  -175.9990   314.6680 br         1 LVU      -0.060100
      2 C8        -106.0660  -176.1380   313.8950 ca         1 LVU      -0.042900
      3 C         -106.9770  -177.1340   314.3280 ca         1 LVU       0.031100
      4 BR        -106.4980  -178.3380   315.6890 br         1 LVU      -0.057100
      5 C7        -106.4100  -175.2500   312.9010 ca         1 LVU      -0.002000
      6 C6        -107.6790  -175.3560   312.3290 ca         1 LVU      -0.216900
      7 C2        -108.5670  -176.3480   312.7670 ca         1 LVU      -0.032200
      8 C1        -108.2320  -177.2550   313.7740 ca         1 LVU      -0.100000
      9 C3        -108.4020  -174.6620   311.3200 cc         1 LVU       0.349900
     10 N1        -109.5920  -175.1840   311.1710 nd         1 LVU      -0.493100
     11 N         -109.6920  -176.1910   312.0350 na         1 LVU      -0.048400
     12 C4        -107.9520  -173.4990   310.4960 c3         1 LVU      -0.018600
     13 C5        -106.9510  -173.8980   309.5140 c1         1 LVU       0.296900
     14 N2        -106.1630  -174.2250   308.7430 n1         1 LVU      -0.447000
     15 H1        -105.7150  -174.4880   312.5710 ha         1 LVU       0.140000
     16 H2        -108.9270  -178.0150   314.1030 ha         1 LVU       0.140000
     17 H4        -107.5220  -172.7150   311.1230 hc         1 LVU       0.088200
     18 H5        -108.8010  -173.0630   309.9660 hc         1 LVU       0.088200
     19 H3        -110.5430  -176.7280   312.0830 hn         1 LVU       0.386000
@<TRIPOS>BOND
     1     1     2 1   
     2     2     3 ar  
     3     2     5 ar  
     4     3     4 1   
     5     3     8 ar  
     6     5     6 ar  
     7     5    15 1   
     8     6     7 ar  
     9     6     9 1   
    10     7     8 ar  
    11     7    11 1   
    12     8    16 1   
    13     9    10 2   
    14     9    12 1   
    15    10    11 1   
    16    11    19 1   
    17    12    13 1   
    18    12    17 1   
    19    12    18 1   
    20    13    14 3   
@<TRIPOS>SUBSTRUCTURE
     1 LVU         1 TEMP              0 ****  ****    0 ROOT
