@<TRIPOS>MOLECULE
LVV
   33    34     1     0     0
SMALL
abcg2


@<TRIPOS>ATOM
      1 C4           1.9420    -0.6780    -0.4900 ca         1 LVV      -0.100300
      2 C5           2.2820    -0.4000     0.8320 ca         1 LVV      -0.094000
      3 C6           3.4860     0.2120     1.1390 ca         1 LVV      -0.113500
      4 C7           0.6570    -1.3890    -0.8240 c3         1 LVV       0.224100
      5 C8          -1.6280    -1.7270    -0.1720 c6         1 LVV       0.182300
      6 C10         -1.7780     1.2170     0.3320 c6         1 LVV      -0.300900
      7 N           -0.4870    -0.8320    -0.1230 n3         1 LVV      -0.736600
      8 C1           4.3930     0.5670     0.1400 ca         1 LVV      -0.069300
      9 C11         -0.8000     0.5050    -0.5920 c6         1 LVV       0.182300
     10 C2           4.0440     0.2980    -1.1800 ca         1 LVV      -0.113500
     11 C3           2.8360    -0.3130    -1.4900 ca         1 LVV      -0.094000
     12 C9          -2.7180    -1.3070     0.8040 c6         1 LVV      -0.300900
     13 S           -3.3200     0.3230     0.4020 s6         1 LVV       1.082000
     14 H1           1.5900    -0.6580     1.6250 ha         1 LVV       0.116500
     15 H2           3.7290     0.4180     2.1760 ha         1 LVV       0.112000
     16 H3           0.5140    -1.3930    -1.9160 h1         1 LVV       0.043200
     17 H4           0.7490    -2.4370    -0.5270 h1         1 LVV       0.043200
     18 H5          -2.0510    -1.8230    -1.1840 h1         1 LVV       0.056950
     19 H6          -1.3030    -2.7240     0.1270 h1         1 LVV       0.056950
     20 H7          -1.3900     1.2800     1.3490 h1         1 LVV       0.109950
     21 H8          -2.0080     2.2220    -0.0270 h1         1 LVV       0.109950
     22 H10          6.4750     0.4370     0.6610 hc         1 LVV       0.043367
     23 H11          6.0740     1.8350    -0.3240 hc         1 LVV       0.043367
     24 H12          5.6440     1.8030     1.3870 hc         1 LVV       0.043367
     25 H13         -1.1920     0.5060    -1.6200 h1         1 LVV       0.056950
     26 H14          0.1140     1.1000    -0.6040 h1         1 LVV       0.056950
     27 H15          4.7210     0.5740    -1.9800 ha         1 LVV       0.112000
     28 H16          2.5830    -0.5030    -2.5270 ha         1 LVV       0.116500
     29 H17         -3.5740    -1.9820     0.7620 h1         1 LVV       0.109950
     30 H18         -2.3400    -1.2680     1.8260 h1         1 LVV       0.109950
     31 C            5.7120     1.1980     0.4830 c3         1 LVV      -0.047800
     32 O           -3.8910     0.2870    -0.9470 o          1 LVV      -0.519500
     33 O1          -4.1550     0.8350     1.4890 o          1 LVV      -0.519500
@<TRIPOS>BOND
     1     1     2 ar  
     2     1     4 1   
     3     1    11 ar  
     4     2     3 ar  
     5     2    14 1   
     6     3     8 ar  
     7     3    15 1   
     8     4     7 1   
     9     4    16 1   
    10     4    17 1   
    11     5     7 1   
    12     5    12 1   
    13     5    18 1   
    14     5    19 1   
    15     6     9 1   
    16     6    13 1   
    17     6    20 1   
    18     6    21 1   
    19     7     9 1   
    20     8    10 ar  
    21     8    31 1   
    22     9    25 1   
    23     9    26 1   
    24    10    11 ar  
    25    10    27 1   
    26    11    28 1   
    27    12    13 1   
    28    12    29 1   
    29    12    30 1   
    30    13    32 2   
    31    13    33 2   
    32    22    31 1   
    33    23    31 1   
    34    24    31 1   
@<TRIPOS>SUBSTRUCTURE
     1 LVV         1 TEMP              0 ****  ****    0 ROOT
