@<TRIPOS>MOLECULE
LVV
   33    34     1     0     0
SMALL
No Charge or Current Charge


@<TRIPOS>ATOM
      1 C4           1.9920    -0.7860    -0.3890 ca         1 LVV      -0.100300
      2 C5           2.4700    -0.6590     0.9290 ca         1 LVV      -0.094000
      3 C6           3.6730     0.0210     1.1870 ca         1 LVV      -0.113500
      4 C7           0.6850    -1.5240    -0.6640 c3         1 LVV       0.224100
      5 C8          -1.7020    -1.7480    -0.1460 c6         1 LVV       0.182300
      6 C10         -1.7760     1.2390     0.2720 c6         1 LVV      -0.300900
      7 N           -0.5020    -0.8810    -0.0430 n3         1 LVV      -0.736600
      8 C1           4.4120     0.5830     0.1300 ca         1 LVV      -0.069300
      9 C11         -0.7380     0.4910    -0.5700 c6         1 LVV       0.182300
     10 C2           3.9370     0.4550    -1.1890 ca         1 LVV      -0.113500
     11 C3           2.7340    -0.2250    -1.4480 ca         1 LVV      -0.094000
     12 C9          -2.8390    -1.2340     0.7420 c6         1 LVV      -0.300900
     13 S           -3.3650     0.4070     0.2420 s6         1 LVV       1.082000
     14 H1           1.9030    -1.0860     1.7540 ha         1 LVV       0.116500
     15 H2           4.0290     0.1110     2.2110 ha         1 LVV       0.112000
     16 H3           0.5380    -1.6140    -1.7490 h1         1 LVV       0.043200
     17 H4           0.7970    -2.5460    -0.2750 h1         1 LVV       0.043200
     18 H5          -2.0430    -1.8230    -1.1910 h1         1 LVV       0.056950
     19 H6          -1.4570    -2.7710     0.1790 h1         1 LVV       0.056950
     20 H7          -1.4700     1.2830     1.3240 h1         1 LVV       0.109950
     21 H8          -1.9490     2.2510    -0.1090 h1         1 LVV       0.109950
     22 H10          6.5660     0.6260     0.3760 hc         1 LVV       0.043367
     23 H11          5.8960     2.1070    -0.3300 hc         1 LVV       0.043367
     24 H12          5.7050     1.7880     1.3990 hc         1 LVV       0.043367
     25 H13         -1.0610     0.4550    -1.6230 h1         1 LVV       0.056950
     26 H14          0.1910     1.0790    -0.5460 h1         1 LVV       0.056950
     27 H15          4.5000     0.8820    -2.0150 ha         1 LVV       0.112000
     28 H16          2.3790    -0.3140    -2.4720 ha         1 LVV       0.116500
     29 H17         -3.7240    -1.8760     0.6750 h1         1 LVV       0.109950
     30 H18         -2.5160    -1.1510     1.7860 h1         1 LVV       0.109950
     31 C            5.7150     1.3170     0.4090 c3         1 LVV      -0.047800
     32 O           -3.8520     0.3530    -1.1440 o          1 LVV      -0.519500
     33 O1          -4.2180     0.9740     1.2950 o          1 LVV      -0.519500
@<TRIPOS>BOND
     1     1     2 ar  
     2     1     4 1   
     3     1    11 ar  
     4     2     3 ar  
     5     2    14 1   
     6     3     8 ar  
     7     3    15 1   
     8     4     7 1   
     9     4    16 1   
    10     4    17 1   
    11     5     7 1   
    12     5    12 1   
    13     5    18 1   
    14     5    19 1   
    15     6     9 1   
    16     6    13 1   
    17     6    20 1   
    18     6    21 1   
    19     7     9 1   
    20     8    10 ar  
    21     8    31 1   
    22     9    25 1   
    23     9    26 1   
    24    10    11 ar  
    25    10    27 1   
    26    11    28 1   
    27    12    13 1   
    28    12    29 1   
    29    12    30 1   
    30    13    32 2   
    31    13    33 2   
    32    22    31 1   
    33    23    31 1   
    34    24    31 1   
@<TRIPOS>SUBSTRUCTURE
     1 LVV         1 TEMP              0 ****  ****    0 ROOT
