@<TRIPOS>MOLECULE
LVW
   21    20     1     0     0
SMALL
No Charge or Current Charge


@<TRIPOS>ATOM
      1 C4          12.4070    32.5080    17.0490 c2         1 LVW      -0.238200
      2 C5          12.8440    33.4270    16.1710 c2         1 LVW      -0.287000
      3 SE          14.3720    36.8890    20.6050 sh         1 LVW      -0.520800
      4 C1          13.8350    35.1320    20.2750 c3         1 LVW       0.142600
      5 C           12.5430    34.6880    21.0170 c3         1 LVW       0.149300
      6 O           12.7270    34.8110    22.4450 oh         1 LVW      -0.707000
      7 C2          12.1010    33.2330    20.6810 c3         1 LVW       0.126600
      8 O1          11.8250    33.1140    19.2680 os         1 LVW      -0.457000
      9 C3          12.8170    32.4130    18.5010 c3         1 LVW       0.195800
     10 H1          11.6920    31.7430    16.7420 ha         1 LVW       0.172000
     11 H2          12.5020    33.4360    15.1350 ha         1 LVW       0.168500
     12 H3          13.5570    34.2030    16.4570 ha         1 LVW       0.168500
     13 H4          15.4780    36.8510    19.8170 hs         1 LVW       0.238800
     14 H6          14.6580    34.4580    20.5470 h1         1 LVW       0.066700
     15 H7          11.7370    35.3600    20.6910 h1         1 LVW       0.056700
     16 H8          11.8360    34.9390    22.8470 ho         1 LVW       0.506000
     17 H9          11.1910    33.0040    21.2510 h1         1 LVW       0.049700
     18 H10         12.8770    32.5230    21.0010 h1         1 LVW       0.049700
     19 H11         12.8660    31.3590    18.8050 h1         1 LVW       0.026200
     20 H12         13.8140    32.8520    18.6370 h1         1 LVW       0.026200
     21 H5          13.6730    35.0430    19.1930 h1         1 LVW       0.066700
@<TRIPOS>BOND
     1     1     2 2   
     2     1     9 1   
     3     1    10 1   
     4     2    11 1   
     5     2    12 1   
     6     3     4 1   
     7     3    13 1   
     8     4     5 1   
     9     4    14 1   
    10     4    21 1   
    11     5     6 1   
    12     5     7 1   
    13     5    15 1   
    14     6    16 1   
    15     7     8 1   
    16     7    17 1   
    17     7    18 1   
    18     8     9 1   
    19     9    19 1   
    20     9    20 1   
@<TRIPOS>SUBSTRUCTURE
     1 LVW         1 TEMP              0 ****  ****    0 ROOT
