@<TRIPOS>MOLECULE
LVW
   21    20     1     0     0
SMALL
bcc


@<TRIPOS>ATOM
      1 C4          12.7460    32.4590    16.9770 c2         1 LVW      -0.188200
      2 C5          11.8880    33.1710    16.2580 c2         1 LVW      -0.187000
      3 SE          14.9000    36.5650    21.2820 sh         1 LVW      -0.472900
      4 C1          14.1370    34.9320    20.4870 c3         1 LVW       0.094700
      5 C           12.6780    34.8280    20.8800 c3         1 LVW       0.126100
      6 O           12.6180    34.9330    22.2870 oh         1 LVW      -0.584800
      7 C2          12.0520    33.5030    20.4360 c3         1 LVW       0.103400
      8 O1          11.9920    33.3990    19.0320 os         1 LVW      -0.410600
      9 C3          12.9020    32.5000    18.4600 c3         1 LVW       0.172600
     10 H1          13.4190    31.7670    16.4800 ha         1 LVW       0.122000
     11 H2          11.8490    33.0670    15.1820 ha         1 LVW       0.118500
     12 H3          11.1950    33.8740    16.7020 ha         1 LVW       0.118500
     13 H4          15.8740    36.7860    20.2240 hs         1 LVW       0.238800
     14 H6          14.6990    34.0640    20.8390 h1         1 LVW       0.066700
     15 H7          12.1260    35.6490    20.4020 h1         1 LVW       0.056700
     16 H8          11.7090    35.1140    22.5470 ho         1 LVW       0.407000
     17 H9          11.0270    33.4600    20.8200 h1         1 LVW       0.049700
     18 H10         12.6010    32.6660    20.8860 h1         1 LVW       0.049700
     19 H11         12.7590    31.4840    18.8580 h1         1 LVW       0.026200
     20 H12         13.9430    32.7670    18.6950 h1         1 LVW       0.026200
     21 H5          14.2390    34.9970    19.4040 h1         1 LVW       0.066700
@<TRIPOS>BOND
     1     1     2 2   
     2     1     9 1   
     3     1    10 1   
     4     2    11 1   
     5     2    12 1   
     6     3     4 1   
     7     3    13 1   
     8     4     5 1   
     9     4    14 1   
    10     4    21 1   
    11     5     6 1   
    12     5     7 1   
    13     5    15 1   
    14     6    16 1   
    15     7     8 1   
    16     7    17 1   
    17     7    18 1   
    18     8     9 1   
    19     9    19 1   
    20     9    20 1   
@<TRIPOS>SUBSTRUCTURE
     1 LVW         1 TEMP              0 ****  ****    0 ROOT
