@<TRIPOS>MOLECULE
LVX
   69    71     1     0     0
SMALL
No Charge or Current Charge


@<TRIPOS>ATOM
      1 F01        -20.3710   -39.0320    -2.9260 f          1 LVX      -0.126000
      2 C02        -19.3700   -39.5120    -2.0610 c6         1 LVX       0.172000
      3 F03        -18.2880   -38.6240    -2.1820 f          1 LVX      -0.126000
      4 C04        -19.8900   -39.4840    -0.6030 c6         1 LVX      -0.118400
      5 C05        -20.9690   -40.5800    -0.3630 c6         1 LVX      -0.136700
      6 C06        -21.5340   -40.5680     1.0700 c          1 LVX       0.599100
      7 O34        -20.8420   -40.8240     2.0430 o          1 LVX      -0.625100
      8 C35        -20.5300   -41.9950    -0.8330 c6         1 LVX      -0.071400
      9 C36        -20.0470   -41.9750    -2.3060 c6         1 LVX      -0.073400
     10 C37        -18.9250   -40.9230    -2.5200 c6         1 LVX      -0.122400
     11 O10        -25.4570   -39.1260     1.3540 os         1 LVX      -0.475000
     12 N07        -22.8590   -40.2190     1.1990 ns         1 LVX      -0.501900
     13 C08        -23.6050   -40.1870     2.4860 c3         1 LVX       0.029700
     14 C12        -23.2150   -38.9780     3.3790 c          1 LVX       0.601100
     15 O33        -23.5740   -38.8820     4.5460 o          1 LVX      -0.598100
     16 C09        -25.1290   -40.2090     2.2460 c3         1 LVX       0.149600
     17 C11        -26.8610   -38.9700     1.0910 c3         1 LVX       0.147900
     18 C14        -21.8240   -36.8610     3.4560 c3         1 LVX       0.127700
     19 C15        -20.2840   -37.0110     3.6100 c3         1 LVX       0.071300
     20 N13        -22.3960   -38.0380     2.7940 ns         1 LVX      -0.487900
     21 O25        -19.6710   -37.3620     2.3350 oh         1 LVX      -0.679000
     22 C16        -19.9460   -38.0270     4.7420 c          1 LVX       0.560100
     23 C26        -22.2330   -35.5700     2.7050 c3         1 LVX      -0.040100
     24 C27        -23.7430   -35.4450     2.5210 ca         1 LVX      -0.082300
     25 C32        -24.3210   -35.5880     1.2440 ca         1 LVX      -0.094000
     26 C31        -25.7130   -35.4860     1.0790 ca         1 LVX      -0.108500
     27 C30        -26.5370   -35.2440     2.1910 ca         1 LVX      -0.109000
     28 C29        -25.9680   -35.1010     3.4670 ca         1 LVX      -0.108500
     29 C28        -24.5750   -35.2000     3.6320 ca         1 LVX      -0.094000
     30 O24        -19.7320   -37.6750     5.8940 o          1 LVX      -0.585100
     31 C19        -20.7530   -41.1040     5.8940 cc         1 LVX       0.413700
     32 C22        -22.7090   -42.4210     6.4160 cc         1 LVX      -0.266000
     33 C18        -19.5340   -40.4710     5.2590 c3         1 LVX       0.077700
     34 C21        -22.3460   -41.5180     7.3870 cd         1 LVX       0.274900
     35 N17        -19.8350   -39.3460     4.3530 ns         1 LVX      -0.493900
     36 N20        -21.2180   -40.7670     7.0930 nd         1 LVX      -0.634000
     37 S23        -21.6200   -42.3690     5.0610 ss         1 LVX      -0.018400
     38 H1         -19.0480   -39.6440     0.0840 hc         1 LVX       0.079700
     39 H2         -20.2950   -38.4900    -0.3700 hc         1 LVX       0.079700
     40 H3         -21.8180   -40.3090    -1.0060 hc         1 LVX       0.066700
     41 H4         -21.3630   -42.7030    -0.7260 hc         1 LVX       0.059200
     42 H5         -19.7220   -42.3650    -0.1860 hc         1 LVX       0.059200
     43 H6         -20.8940   -41.7550    -2.9700 hc         1 LVX       0.055200
     44 H7         -19.6820   -42.9710    -2.5910 hc         1 LVX       0.055200
     45 H8         -18.0290   -41.2240    -1.9590 hc         1 LVX       0.071700
     46 H9         -18.6330   -40.8980    -3.5790 hc         1 LVX       0.071700
     47 H10        -23.3680   -40.0040     0.3480 hn         1 LVX       0.335500
     48 H11        -23.3410   -41.0840     3.0580 h1         1 LVX       0.102700
     49 H12        -25.4110   -41.1720     1.8000 h1         1 LVX       0.049700
     50 H13        -25.6570   -40.1080     3.2040 h1         1 LVX       0.049700
     51 H14        -27.0290   -38.1370     0.3960 h1         1 LVX       0.035367
     52 H15        -27.2790   -39.8800     0.6410 h1         1 LVX       0.035367
     53 H16        -27.4100   -38.7550     2.0180 h1         1 LVX       0.035367
     54 H18        -22.2470   -36.7860     4.4670 h1         1 LVX       0.105700
     55 H25        -19.8900   -36.0460     3.9560 h1         1 LVX       0.071700
     56 H26        -22.1320   -38.2130     1.8340 hn         1 LVX       0.323500
     57 H27        -18.6960   -37.2710     2.4350 ho         1 LVX       0.457000
     58 H19        -21.7300   -35.5480     1.7300 hc         1 LVX       0.055700
     59 H20        -21.8560   -34.7020     3.2590 hc         1 LVX       0.055700
     60 H24        -23.6930   -35.7830     0.3780 ha         1 LVX       0.110000
     61 H17        -26.1520   -35.5990     0.0910 ha         1 LVX       0.109000
     62 H23        -27.6150   -35.1690     2.0630 ha         1 LVX       0.109000
     63 H22        -26.6050   -34.9140     4.3280 ha         1 LVX       0.109000
     64 H21        -24.1440   -35.0890     4.6240 ha         1 LVX       0.110000
     65 H28        -23.5410   -43.1120     6.4160 h4         1 LVX       0.157000
     66 H29        -19.0010   -41.2400     4.6870 h1         1 LVX       0.074700
     67 H30        -18.8570   -40.1280     6.0520 h1         1 LVX       0.074700
     68 H31        -22.8610   -41.3640     8.3280 h4         1 LVX       0.039100
     69 H32        -20.0420   -39.5530     3.3760 hn         1 LVX       0.341500
@<TRIPOS>BOND
     1     1     2 1   
     2     2     3 1   
     3     2     4 1   
     4     2    10 1   
     5     4     5 1   
     6     4    38 1   
     7     4    39 1   
     8     5     6 1   
     9     5     8 1   
    10     5    40 1   
    11     6     7 2   
    12     6    12 1   
    13     8     9 1   
    14     8    41 1   
    15     8    42 1   
    16     9    10 1   
    17     9    43 1   
    18     9    44 1   
    19    10    45 1   
    20    10    46 1   
    21    11    16 1   
    22    11    17 1   
    23    12    13 1   
    24    12    47 1   
    25    13    14 1   
    26    13    16 1   
    27    13    48 1   
    28    14    15 2   
    29    14    20 1   
    30    16    49 1   
    31    16    50 1   
    32    17    51 1   
    33    17    52 1   
    34    17    53 1   
    35    18    19 1   
    36    18    20 1   
    37    18    23 1   
    38    18    54 1   
    39    19    21 1   
    40    19    22 1   
    41    19    55 1   
    42    20    56 1   
    43    21    57 1   
    44    22    30 2   
    45    22    35 1   
    46    23    24 1   
    47    23    58 1   
    48    23    59 1   
    49    24    25 ar  
    50    24    29 ar  
    51    25    26 ar  
    52    25    60 1   
    53    26    27 ar  
    54    26    61 1   
    55    27    28 ar  
    56    27    62 1   
    57    28    29 ar  
    58    28    63 1   
    59    29    64 1   
    60    31    33 1   
    61    31    36 2   
    62    31    37 1   
    63    32    34 2   
    64    32    37 1   
    65    32    65 1   
    66    33    35 1   
    67    33    66 1   
    68    33    67 1   
    69    34    36 1   
    70    34    68 1   
    71    35    69 1   
@<TRIPOS>SUBSTRUCTURE
     1 LVX         1 TEMP              0 ****  ****    0 ROOT
