@<TRIPOS>MOLECULE
LVX
   69    71     1     0     0
SMALL
abcg2


@<TRIPOS>ATOM
      1 F01        -19.6500   -39.1880    -2.6270 f          1 LVX      -0.126000
      2 C02        -18.9470   -39.8340    -1.6130 c6         1 LVX       0.172000
      3 F03        -17.7880   -39.0860    -1.4680 f          1 LVX      -0.126000
      4 C04        -19.7470   -39.7620    -0.3350 c6         1 LVX      -0.118400
      5 C05        -21.0000   -40.6500    -0.4200 c6         1 LVX      -0.136700
      6 C06        -21.7110   -40.6350     0.9200 c          1 LVX       0.599100
      7 O34        -21.1710   -41.0510     1.9460 o          1 LVX      -0.625100
      8 C35        -20.6240   -42.0870    -0.8130 c6         1 LVX      -0.071400
      9 C36        -19.8500   -42.1130    -2.1310 c6         1 LVX      -0.073400
     10 C37        -18.5990   -41.2320    -2.0630 c6         1 LVX      -0.122400
     11 O10        -25.5050   -39.0320     0.8180 os         1 LVX      -0.475000
     12 N07        -22.9590   -40.1220     0.9210 ns         1 LVX      -0.501900
     13 C08        -23.7950   -40.0640     2.1040 c3         1 LVX       0.029700
     14 C12        -23.5200   -38.8620     3.0280 c          1 LVX       0.601100
     15 O33        -24.1320   -38.7660     4.0880 o          1 LVX      -0.598100
     16 C09        -25.2590   -40.1100     1.7020 c3         1 LVX       0.149600
     17 C11        -26.8560   -38.9710     0.3870 c3         1 LVX       0.147900
     18 C14        -22.0480   -36.9010     3.3890 c3         1 LVX       0.127700
     19 C15        -20.5170   -37.0410     3.4670 c3         1 LVX       0.071300
     20 N13        -22.5790   -38.0050     2.6130 ns         1 LVX      -0.487900
     21 O25        -20.0520   -37.2880     2.1480 oh         1 LVX      -0.679000
     22 C16        -20.1140   -38.1230     4.4740 c          1 LVX       0.560100
     23 C26        -22.4550   -35.5420     2.7920 c3         1 LVX      -0.040100
     24 C27        -23.9450   -35.3350     2.8100 ca         1 LVX      -0.082300
     25 C32        -24.7230   -35.6150     1.6880 ca         1 LVX      -0.094000
     26 C31        -26.1070   -35.4720     1.7260 ca         1 LVX      -0.108500
     27 C30        -26.7320   -35.0430     2.8920 ca         1 LVX      -0.109000
     28 C29        -25.9640   -34.7550     4.0180 ca         1 LVX      -0.108500
     29 C28        -24.5830   -34.9020     3.9740 ca         1 LVX      -0.094000
     30 O24        -20.0590   -37.8510     5.6730 o          1 LVX      -0.585100
     31 C19        -20.4510   -40.9840     5.7320 cc         1 LVX       0.413700
     32 C22        -22.4380   -41.9310     6.7700 cc         1 LVX      -0.266000
     33 C18        -19.3960   -40.4330     4.8140 c3         1 LVX       0.077700
     34 C21        -21.3690   -41.7560     7.5930 cd         1 LVX       0.274900
     35 N17        -19.8360   -39.3350     3.9750 ns         1 LVX      -0.493900
     36 N20        -20.2510   -41.2180     6.9990 nd         1 LVX      -0.634000
     37 S23        -22.0390   -41.4140     5.1790 ss         1 LVX      -0.018400
     38 H1         -19.1090   -40.1080     0.4800 hc         1 LVX       0.079700
     39 H2         -20.0120   -38.7230    -0.1390 hc         1 LVX       0.079700
     40 H3         -21.6670   -40.2410    -1.1820 hc         1 LVX       0.066700
     41 H4         -21.5290   -42.6910    -0.8970 hc         1 LVX       0.059200
     42 H5         -20.0150   -42.5210    -0.0150 hc         1 LVX       0.059200
     43 H6         -20.4960   -41.7690    -2.9430 hc         1 LVX       0.055200
     44 H7         -19.5560   -43.1360    -2.3700 hc         1 LVX       0.055200
     45 H8         -17.8930   -41.6390    -1.3350 hc         1 LVX       0.071700
     46 H9         -18.0940   -41.1740    -3.0280 hc         1 LVX       0.071700
     47 H10        -23.3540   -39.7830     0.0570 hn         1 LVX       0.335500
     48 H11        -23.5830   -40.9400     2.7170 h1         1 LVX       0.102700
     49 H12        -25.4770   -41.0650     1.2100 h1         1 LVX       0.049700
     50 H13        -25.8800   -40.0270     2.5990 h1         1 LVX       0.049700
     51 H14        -26.9420   -38.1200    -0.2860 h1         1 LVX       0.035367
     52 H15        -27.1400   -39.8870    -0.1430 h1         1 LVX       0.035367
     53 H16        -27.5310   -38.8300     1.2380 h1         1 LVX       0.035367
     54 H18        -22.4560   -36.9840     4.3960 h1         1 LVX       0.105700
     55 H25        -20.1070   -36.1080     3.8610 h1         1 LVX       0.071700
     56 H26        -22.1680   -38.1580     1.7050 hn         1 LVX       0.323500
     57 H27        -19.0900   -37.2070     2.1250 ho         1 LVX       0.457000
     58 H19        -22.0750   -35.4760     1.7710 hc         1 LVX       0.055700
     59 H20        -21.9630   -34.7640     3.3800 hc         1 LVX       0.055700
     60 H24        -24.2420   -35.9570     0.7800 ha         1 LVX       0.110000
     61 H17        -26.6950   -35.6990     0.8460 ha         1 LVX       0.109000
     62 H23        -27.8090   -34.9310     2.9230 ha         1 LVX       0.109000
     63 H22        -26.4420   -34.4170     4.9290 ha         1 LVX       0.109000
     64 H21        -23.9900   -34.6800     4.8540 ha         1 LVX       0.110000
     65 H28        -23.4150   -42.3180     7.0080 h4         1 LVX       0.157000
     66 H29        -19.0380   -41.2190     4.1490 h1         1 LVX       0.074700
     67 H30        -18.5650   -40.1110     5.4410 h1         1 LVX       0.074700
     68 H31        -21.3490   -41.9960     8.6460 h4         1 LVX       0.039100
     69 H32        -20.0120   -39.5230     2.9980 hn         1 LVX       0.341500
@<TRIPOS>BOND
     1     1     2 1   
     2     2     3 1   
     3     2     4 1   
     4     2    10 1   
     5     4     5 1   
     6     4    38 1   
     7     4    39 1   
     8     5     6 1   
     9     5     8 1   
    10     5    40 1   
    11     6     7 2   
    12     6    12 1   
    13     8     9 1   
    14     8    41 1   
    15     8    42 1   
    16     9    10 1   
    17     9    43 1   
    18     9    44 1   
    19    10    45 1   
    20    10    46 1   
    21    11    16 1   
    22    11    17 1   
    23    12    13 1   
    24    12    47 1   
    25    13    14 1   
    26    13    16 1   
    27    13    48 1   
    28    14    15 2   
    29    14    20 1   
    30    16    49 1   
    31    16    50 1   
    32    17    51 1   
    33    17    52 1   
    34    17    53 1   
    35    18    19 1   
    36    18    20 1   
    37    18    23 1   
    38    18    54 1   
    39    19    21 1   
    40    19    22 1   
    41    19    55 1   
    42    20    56 1   
    43    21    57 1   
    44    22    30 2   
    45    22    35 1   
    46    23    24 1   
    47    23    58 1   
    48    23    59 1   
    49    24    25 ar  
    50    24    29 ar  
    51    25    26 ar  
    52    25    60 1   
    53    26    27 ar  
    54    26    61 1   
    55    27    28 ar  
    56    27    62 1   
    57    28    29 ar  
    58    28    63 1   
    59    29    64 1   
    60    31    33 1   
    61    31    36 2   
    62    31    37 1   
    63    32    34 2   
    64    32    37 1   
    65    32    65 1   
    66    33    35 1   
    67    33    66 1   
    68    33    67 1   
    69    34    36 1   
    70    34    68 1   
    71    35    69 1   
@<TRIPOS>SUBSTRUCTURE
     1 LVX         1 TEMP              0 ****  ****    0 ROOT
