@<TRIPOS>MOLECULE
LVY
   32    34     1     0     0
SMALL
No Charge or Current Charge


@<TRIPOS>ATOM
      1 C1           1.5170     1.0400     0.0690 c6         1 LVY       0.052700
      2 C2           2.1300     0.8340     1.4840 c6         1 LVY      -0.093400
      3 C3           2.8290    -0.5390     1.6410 c6         1 LVY      -0.163400
      4 C4           3.7760    -0.8640     0.4840 c          1 LVY       0.577000
      5 N5           3.4580    -0.3320    -0.7310 ns         1 LVY      -0.486500
      6 C6           2.3480     0.3900    -1.0780 c          1 LVY       0.563000
      7 C7          -2.2230     0.8360     0.0910 ca         1 LVY      -0.117600
      8 C8          -1.9160    -0.5030    -0.1030 ca         1 LVY      -0.156300
      9 C9          -0.4090    -0.7330    -0.1490 c5         1 LVY       0.153300
     10 N10          0.0720     0.6730     0.0480 n          1 LVY      -0.423800
     11 C11         -0.9670     1.6030     0.1870 c          1 LVY       0.581600
     12 C12         -4.5830     0.3490     0.0490 ca         1 LVY      -0.079000
     13 C13         -4.2780    -1.0180    -0.1480 ca         1 LVY      -0.156000
     14 C14         -2.9410    -1.4540    -0.2260 ca         1 LVY       0.307000
     15 C15         -3.5470     1.2940     0.1710 ca         1 LVY      -0.081000
     16 O16         -0.8460     2.8090     0.3540 o          1 LVY      -0.536000
     17 N17         -2.6610    -2.7810    -0.4180 nv         1 LVY      -1.072000
     18 O18          2.0660     0.5520    -2.2550 o          1 LVY      -0.501000
     19 O19          4.7940    -1.5170     0.6380 o          1 LVY      -0.511000
     20 H1           1.5830     2.1160    -0.1470 h1         1 LVY       0.108700
     21 H21C         2.8810     1.6190     1.6530 hc         1 LVY       0.071700
     22 H22C         1.3690     0.9760     2.2640 hc         1 LVY       0.071700
     23 H31C         3.3510    -0.6550     2.6000 hc         1 LVY       0.083700
     24 H32C         2.0440    -1.3050     1.6070 hc         1 LVY       0.083700
     25 H5           4.0500    -0.6160    -1.4970 hn         1 LVY       0.327500
     26 H15         -3.7660     2.3490     0.3230 ha         1 LVY       0.138000
     27 H91         -0.0790    -1.3980     0.6590 h1         1 LVY       0.059200
     28 H92         -0.0920    -1.1450    -1.1170 h1         1 LVY       0.059200
     29 H12         -5.6210     0.6710     0.1070 ha         1 LVY       0.118000
     30 H13         -5.0880    -1.7370    -0.2390 ha         1 LVY       0.115000
     31 H171        -1.7090    -3.0770    -0.6220 hn         1 LVY       0.453000
     32 H172        -3.4130    -3.4320    -0.6380 hn         1 LVY       0.453000
@<TRIPOS>BOND
     1     1     2 1   
     2     1     6 1   
     3     1    10 1   
     4     1    20 1   
     5     2     3 1   
     6     2    21 1   
     7     2    22 1   
     8     3     4 1   
     9     3    23 1   
    10     3    24 1   
    11     4     5 1   
    12     4    19 2   
    13     5     6 1   
    14     5    25 1   
    15     6    18 2   
    16     7     8 ar  
    17     7    11 1   
    18     7    15 ar  
    19     8     9 1   
    20     8    14 ar  
    21     9    10 1   
    22     9    27 1   
    23     9    28 1   
    24    10    11 1   
    25    11    16 2   
    26    12    13 ar  
    27    12    15 ar  
    28    12    29 1   
    29    13    14 ar  
    30    13    30 1   
    31    14    17 1   
    32    15    26 1   
    33    17    31 1   
    34    17    32 1   
@<TRIPOS>SUBSTRUCTURE
     1 LVY         1 TEMP              0 ****  ****    0 ROOT
