@<TRIPOS>MOLECULE
LVY
   32    34     1     0     0
SMALL
bcc


@<TRIPOS>ATOM
      1 C1           1.5200     1.1780    -0.0300 c6         1 LVY       0.052700
      2 C2           2.2020     1.1070     1.3300 c6         1 LVY      -0.093400
      3 C3           2.5020    -0.3220     1.7430 c6         1 LVY      -0.163400
      4 C4           3.2240    -1.0930     0.6760 c          1 LVY       0.719500
      5 N5           3.0650    -0.6410    -0.6240 ns         1 LVY      -0.620500
      6 C6           2.2960     0.4010    -1.0820 c          1 LVY       0.705500
      7 C7          -2.1130     0.7660     0.1960 ca         1 LVY      -0.117600
      8 C8          -1.7740    -0.5270    -0.1550 ca         1 LVY      -0.156300
      9 C9          -0.2910    -0.6340    -0.3180 c5         1 LVY       0.153300
     10 N10          0.1470     0.7190    -0.0220 n          1 LVY      -0.490800
     11 C11         -0.8760     1.5650     0.2790 c          1 LVY       0.724100
     12 C12         -4.3980     0.1880     0.2740 ca         1 LVY      -0.097000
     13 C13         -4.0730    -1.1160    -0.0830 ca         1 LVY      -0.174000
     14 C14         -2.7480    -1.5140    -0.3080 ca         1 LVY       0.168600
     15 C15         -3.4200     1.1630     0.4220 ca         1 LVY      -0.099000
     16 O16         -0.7610     2.7450     0.5580 o          1 LVY      -0.611500
     17 N17         -2.4180    -2.8150    -0.6040 nv         1 LVY      -0.823200
     18 O18          2.2380     0.6610    -2.2600 o          1 LVY      -0.576500
     19 O19          3.9080    -2.0660     0.8920 o          1 LVY      -0.586500
     20 H1           1.5120     2.2170    -0.3640 h1         1 LVY       0.108700
     21 H21C         3.1320     1.6780     1.2750 hc         1 LVY       0.071700
     22 H22C         1.5790     1.5960     2.0770 hc         1 LVY       0.071700
     23 H31C         3.1120    -0.3500     2.6460 hc         1 LVY       0.083700
     24 H32C         1.5830    -0.8650     1.9880 hc         1 LVY       0.083700
     25 H5           3.5690    -1.1620    -1.3340 hn         1 LVY       0.327500
     26 H15         -3.6670     2.1790     0.6970 ha         1 LVY       0.156000
     27 H91          0.1410    -1.3680     0.3690 h1         1 LVY       0.059200
     28 H92         -0.0130    -0.9320    -1.3340 h1         1 LVY       0.059200
     29 H12         -5.4380     0.4390     0.4340 ha         1 LVY       0.136000
     30 H13         -4.8650    -1.8470    -0.1910 ha         1 LVY       0.133000
     31 H171        -1.5740    -2.9560    -1.1350 hn         1 LVY       0.397800
     32 H172        -3.1710    -3.3890    -0.9480 hn         1 LVY       0.397800
@<TRIPOS>BOND
     1     1     2 1   
     2     1     6 1   
     3     1    10 1   
     4     1    20 1   
     5     2     3 1   
     6     2    21 1   
     7     2    22 1   
     8     3     4 1   
     9     3    23 1   
    10     3    24 1   
    11     4     5 1   
    12     4    19 2   
    13     5     6 1   
    14     5    25 1   
    15     6    18 2   
    16     7     8 ar  
    17     7    11 1   
    18     7    15 ar  
    19     8     9 1   
    20     8    14 ar  
    21     9    10 1   
    22     9    27 1   
    23     9    28 1   
    24    10    11 1   
    25    11    16 2   
    26    12    13 ar  
    27    12    15 ar  
    28    12    29 1   
    29    13    14 ar  
    30    13    30 1   
    31    14    17 1   
    32    15    26 1   
    33    17    31 1   
    34    17    32 1   
@<TRIPOS>SUBSTRUCTURE
     1 LVY         1 TEMP              0 ****  ****    0 ROOT
