@<TRIPOS>MOLECULE
LVZ
   40    40     1     0     0
SMALL
bcc


@<TRIPOS>ATOM
      1 C1A        -27.4280    27.3250    35.1770 c3         1 LVZ       0.161100
      2 C2A        -27.1390    27.6020    33.7110 c3         1 LVZ      -0.106100
      3 O1         -28.2040    28.3770    35.7470 os         1 LVZ      -0.417600
      4 C3A        -28.1920    26.0260    35.3670 c3         1 LVZ      -0.106100
      5 N9         -29.5270    29.0110    38.1200 n7         1 LVZ      -0.800100
      6 C1         -27.5540    29.2180    36.6290 c6         1 LVZ       0.334900
      7 S19        -29.0340    28.1720    39.5120 s6         1 LVZ       1.351700
      8 O1S        -28.4760    29.1460    40.4670 o          1 LVZ      -0.716200
      9 C2         -28.5840    29.9360    37.5120 c6         1 LVZ       0.207500
     10 S29        -24.0620    31.2030    33.3390 s6         1 LVZ       1.506300
     11 O2S        -28.0320    27.2050    39.0360 o          1 LVZ      -0.716200
     12 C3         -29.3600    30.9600    36.6910 c6         1 LVZ       0.133100
     13 O3         -30.2060    31.6590    37.5740 oh         1 LVZ      -0.603800
     14 O3S        -30.2900    27.5620    39.9680 o          1 LVZ      -0.716200
     15 C4         -28.4050    31.9020    35.9650 c6         1 LVZ       0.074100
     16 O4         -29.1910    32.7540    35.1610 oh         1 LVZ      -0.616800
     17 O4S        -23.8830    32.4720    32.6310 o          1 LVZ      -0.716200
     18 C5         -27.4330    31.0670    35.1300 c6         1 LVZ       0.113100
     19 O5         -26.7460    30.1640    35.9750 os         1 LVZ      -0.410600
     20 O5S        -23.4960    31.1940    34.6900 o          1 LVZ      -0.716200
     21 C6         -26.3840    31.8950    34.4160 c3         1 LVZ       0.208400
     22 O6         -25.6850    31.0320    33.5320 os         1 LVZ      -0.572500
     23 O6S        -23.7630    30.0150    32.5430 o          1 LVZ      -0.716200
     24 H1A        -26.4730    27.2480    35.7130 h1         1 LVZ       0.047700
     25 H2A        -26.5810    26.7730    33.2750 hc         1 LVZ       0.037200
     26 H2AA       -26.5490    28.5080    33.5800 hc         1 LVZ       0.037200
     27 H2B        -28.0670    27.7100    33.1460 hc         1 LVZ       0.037200
     28 H1         -26.8560    28.6580    37.2610 h2         1 LVZ       0.101700
     29 H2         -28.0070    30.4890    38.2680 h1         1 LVZ       0.060700
     30 H3A        -27.6260    25.1890    34.9560 hc         1 LVZ       0.037200
     31 H3AA       -29.1560    26.0610    34.8550 hc         1 LVZ       0.037200
     32 H3B        -28.3700    25.8280    36.4230 hc         1 LVZ       0.037200
     33 H3         -29.9540    30.4270    35.9320 h1         1 LVZ       0.060700
     34 H4         -27.8380    32.4720    36.7150 h1         1 LVZ       0.046700
     35 H5         -28.0150    30.5260    34.3710 h1         1 LVZ       0.065700
     36 H61        -26.8610    32.6950    33.8440 h1         1 LVZ       0.026700
     37 H62        -25.7180    32.3590    35.1510 h1         1 LVZ       0.026700
     38 HN9        -30.3860    29.5000    38.3500 hn         1 LVZ       0.386800
     39 HO3        -30.7870    32.2200    37.0500 ho         1 LVZ       0.395000
     40 HO4        -28.7670    33.6150    35.1050 ho         1 LVZ       0.396000
@<TRIPOS>BOND
     1     1     2 1   
     2     1     3 1   
     3     1     4 1   
     4     1    24 1   
     5     2    25 1   
     6     2    26 1   
     7     2    27 1   
     8     3     6 1   
     9     4    30 1   
    10     4    31 1   
    11     4    32 1   
    12     5     7 1   
    13     5     9 1   
    14     5    38 1   
    15     6     9 1   
    16     6    19 1   
    17     6    28 1   
    18     7     8 1   
    19     7    11 1   
    20     7    14 1   
    21     9    12 1   
    22     9    29 1   
    23    10    17 1   
    24    10    20 1   
    25    10    22 1   
    26    10    23 1   
    27    12    13 1   
    28    12    15 1   
    29    12    33 1   
    30    13    39 1   
    31    15    16 1   
    32    15    18 1   
    33    15    34 1   
    34    16    40 1   
    35    18    19 1   
    36    18    21 1   
    37    18    35 1   
    38    21    22 1   
    39    21    36 1   
    40    21    37 1   
@<TRIPOS>SUBSTRUCTURE
     1 LVZ         1 TEMP              0 ****  ****    0 ROOT
