@<TRIPOS>MOLECULE
LVZ
   40    40     1     0     0
SMALL
No Charge or Current Charge


@<TRIPOS>ATOM
      1 C1A        -27.6090    27.0240    35.3180 c3         1 LVZ       0.184300
      2 C2A        -26.4370    27.4350    34.3970 c3         1 LVZ      -0.106100
      3 O1         -28.2950    28.1900    35.8190 os         1 LVZ      -0.464000
      4 C3A        -28.6650    26.1910    34.5670 c3         1 LVZ      -0.106100
      5 N9         -29.5820    29.0430    38.4520 n7         1 LVZ      -0.855300
      6 C1         -27.6070    29.0370    36.7760 c6         1 LVZ       0.381300
      7 S19        -29.1050    28.3340    39.8520 s6         1 LVZ       1.351700
      8 O1S        -29.7570    29.2310    40.8030 o          1 LVZ      -0.716200
      9 C2         -28.6150    29.8630    37.6610 c6         1 LVZ       0.207500
     10 S29        -24.3080    31.5840    32.7230 s6         1 LVZ       1.506300
     11 O2S        -27.6430    28.4140    39.8120 o          1 LVZ      -0.716200
     12 C3         -29.3720    30.8800    36.7530 c6         1 LVZ       0.156300
     13 O3         -30.2710    31.7090    37.5210 oh         1 LVZ      -0.666000
     14 O3S        -29.6760    26.9920    39.7310 o          1 LVZ      -0.716200
     15 C4         -28.3630    31.7830    35.9830 c6         1 LVZ       0.097300
     16 O4         -29.0860    32.7040    35.1330 oh         1 LVZ      -0.739000
     17 O4S        -24.9860    32.6250    31.9370 o          1 LVZ      -0.716200
     18 C5         -27.3750    30.8800    35.1750 c6         1 LVZ       0.136300
     19 O5         -26.7200    29.9450    36.0760 os         1 LVZ      -0.457000
     20 O5S        -23.4110    32.1050    33.7650 o          1 LVZ      -0.716200
     21 C6         -26.2630    31.7070    34.4510 c3         1 LVZ       0.231600
     22 O6         -25.5190    30.8590    33.5580 os         1 LVZ      -0.595700
     23 O6S        -23.7350    30.4950    31.9190 o          1 LVZ      -0.716200
     24 H1A        -27.2190    26.4200    36.1480 h1         1 LVZ       0.047700
     25 H2A        -26.0330    26.5560    33.8810 hc         1 LVZ       0.037200
     26 H2AA       -25.6180    27.8790    34.9730 hc         1 LVZ       0.037200
     27 H2B        -26.7680    28.1530    33.6380 hc         1 LVZ       0.037200
     28 H1         -27.0070    28.4030    37.4450 h2         1 LVZ       0.101700
     29 H2         -28.0160    30.4640    38.3620 h1         1 LVZ       0.060700
     30 H3A        -28.2210    25.2660    34.1810 hc         1 LVZ       0.037200
     31 H3AA       -29.0800    26.7540    33.7230 hc         1 LVZ       0.037200
     32 H3B        -29.4870    25.9170    35.2400 hc         1 LVZ       0.037200
     33 H3         -29.9490    30.3070    36.0110 h1         1 LVZ       0.060700
     34 H4         -27.7760    32.3470    36.7250 h1         1 LVZ       0.046700
     35 H5         -27.9350    30.3200    34.4120 h1         1 LVZ       0.065700
     36 H61        -26.7410    32.5200    33.8910 h1         1 LVZ       0.026700
     37 H62        -25.6110    32.1550    35.2130 h1         1 LVZ       0.026700
     38 HN9        -30.2090    29.7020    38.9030 hn         1 LVZ       0.442000
     39 HO3        -30.4760    32.4630    36.9230 ho         1 LVZ       0.434000
     40 HO4        -28.5370    33.5190    35.0370 ho         1 LVZ       0.495000
@<TRIPOS>BOND
     1     1     2 1   
     2     1     3 1   
     3     1     4 1   
     4     1    24 1   
     5     2    25 1   
     6     2    26 1   
     7     2    27 1   
     8     3     6 1   
     9     4    30 1   
    10     4    31 1   
    11     4    32 1   
    12     5     7 1   
    13     5     9 1   
    14     5    38 1   
    15     6     9 1   
    16     6    19 1   
    17     6    28 1   
    18     7     8 1   
    19     7    11 1   
    20     7    14 1   
    21     9    12 1   
    22     9    29 1   
    23    10    17 1   
    24    10    20 1   
    25    10    22 1   
    26    10    23 1   
    27    12    13 1   
    28    12    15 1   
    29    12    33 1   
    30    13    39 1   
    31    15    16 1   
    32    15    18 1   
    33    15    34 1   
    34    16    40 1   
    35    18    19 1   
    36    18    21 1   
    37    18    35 1   
    38    21    22 1   
    39    21    36 1   
    40    21    37 1   
@<TRIPOS>SUBSTRUCTURE
     1 LVZ         1 TEMP              0 ****  ****    0 ROOT
