@<TRIPOS>MOLECULE
LW1
   11    11     1     0     0
SMALL
bcc


@<TRIPOS>ATOM
      1 C2           1.8530     0.5510     0.0270 c          1 LW1       0.609500
      2 C3           0.4980     0.0260     0.0340 cc         1 LW1      -0.198700
      3 C4           0.1080    -1.2900     0.0050 cd         1 LW1      -0.073000
      4 C5          -1.2930    -1.4410     0.0200 cd         1 LW1      -0.166000
      5 C6          -1.9460    -0.2380     0.0590 cc         1 LW1      -0.103100
      6 O1           2.8410    -0.1490    -0.0060 o          1 LW1      -0.515100
      7 S7          -0.8680     1.0780     0.0780 ss         1 LW1      -0.044800
      8 H1           1.9350     1.6510     0.0540 h4         1 LW1      -0.005800
      9 H2           0.8080    -2.1130    -0.0240 ha         1 LW1       0.168000
     10 H3          -1.8030    -2.3930     0.0030 ha         1 LW1       0.158000
     11 H4          -3.0110    -0.0660     0.0770 h4         1 LW1       0.171000
@<TRIPOS>BOND
     1     1     2 1   
     2     1     6 2   
     3     1     8 1   
     4     2     3 2   
     5     2     7 1   
     6     3     4 1   
     7     3     9 1   
     8     4     5 2   
     9     4    10 1   
    10     5     7 1   
    11     5    11 1   
@<TRIPOS>SUBSTRUCTURE
     1 LW1         1 TEMP              0 ****  ****    0 ROOT
