@<TRIPOS>MOLECULE
LW1
   11    11     1     0     0
SMALL
No Charge or Current Charge


@<TRIPOS>ATOM
      1 C2           1.8770     0.5430     0.0270 c          1 LW1       0.609500
      2 C3           0.4890     0.0500     0.0330 cc         1 LW1      -0.343600
      3 C4           0.1140    -1.2710     0.0050 cd         1 LW1      -0.055000
      4 C5          -1.2960    -1.4400     0.0200 cd         1 LW1      -0.148000
      5 C6          -1.9910    -0.2550     0.0590 cc         1 LW1      -0.230000
      6 O1           2.8630    -0.1860    -0.0050 o          1 LW1      -0.515100
      7 S7          -0.8980     1.1270     0.0790 ss         1 LW1       0.245000
      8 H1           1.9860     1.6500     0.0530 h4         1 LW1      -0.005800
      9 H2           0.8170    -2.1010    -0.0250 ha         1 LW1       0.150000
     10 H3          -1.7780    -2.4130     0.0020 ha         1 LW1       0.140000
     11 H4          -3.0610    -0.0880     0.0780 h4         1 LW1       0.153000
@<TRIPOS>BOND
     1     1     2 1   
     2     1     6 2   
     3     1     8 1   
     4     2     3 2   
     5     2     7 1   
     6     3     4 1   
     7     3     9 1   
     8     4     5 2   
     9     4    10 1   
    10     5     7 1   
    11     5    11 1   
@<TRIPOS>SUBSTRUCTURE
     1 LW1         1 TEMP              0 ****  ****    0 ROOT
