@<TRIPOS>MOLECULE
LW2
   22    22     1     0     0
SMALL
No Charge or Current Charge


@<TRIPOS>ATOM
      1 C1           3.2730     1.5050    -0.0240 c3         1 LW2      -0.196100
      2 C2           2.8220     0.0500    -0.1860 c          1 LW2       0.554100
      3 C3           1.3090    -0.2070    -0.4730 c3         1 LW2       0.029300
      4 C5           0.3980     0.3400     0.6660 c3         1 LW2       0.238600
      5 C7          -1.0470     0.4910     0.2600 cc         1 LW2      -0.263300
      6 C8          -1.7400     1.6640     0.0780 cd         1 LW2      -0.114000
      7 C9          -3.0930     1.4750    -0.3080 cd         1 LW2      -0.138000
      8 C10         -3.4500     0.1570    -0.4260 cc         1 LW2      -0.250000
      9 O4           1.0190    -1.6200    -0.7140 oh         1 LW2      -0.658000
     10 O6           0.4970    -0.5400     1.7830 oh         1 LW2      -0.652000
     11 O12          3.6380    -0.8650    -0.1400 o          1 LW2      -0.521100
     12 S11         -2.0930    -0.9000    -0.0510 ss         1 LW2       0.259000
     13 H1           2.9920     1.8450     0.9780 hc         1 LW2       0.069367
     14 H2           4.3540     1.6200    -0.1620 hc         1 LW2       0.069367
     15 H3           2.6930     2.1570    -0.6880 hc         1 LW2       0.069367
     16 H4           1.0830     0.3780    -1.3750 h1         1 LW2       0.084700
     17 H5           0.7500     1.3410     0.9520 h1         1 LW2       0.080700
     18 H6          -1.2960     2.6460     0.2160 ha         1 LW2       0.130000
     19 H7          -3.7800     2.2970    -0.4940 ha         1 LW2       0.134000
     20 H8          -4.4030    -0.2750    -0.7020 h4         1 LW2       0.149000
     21 H9           1.7920    -2.0060    -1.1910 ho         1 LW2       0.471000
     22 H10          0.5170    -1.4340     1.3740 ho         1 LW2       0.454000
@<TRIPOS>BOND
     1     1     2 1   
     2     1    13 1   
     3     1    14 1   
     4     1    15 1   
     5     2     3 1   
     6     2    11 2   
     7     3     4 1   
     8     3     9 1   
     9     3    16 1   
    10     4     5 1   
    11     4    10 1   
    12     4    17 1   
    13     5     6 2   
    14     5    12 1   
    15     6     7 1   
    16     6    18 1   
    17     7     8 2   
    18     7    19 1   
    19     8    12 1   
    20     8    20 1   
    21     9    21 1   
    22    10    22 1   
@<TRIPOS>SUBSTRUCTURE
     1 LW2         1 TEMP              0 ****  ****    0 ROOT
