@<TRIPOS>MOLECULE
LW2
   22    22     1     0     0
SMALL
abcg2


@<TRIPOS>ATOM
      1 C1           3.3540     1.3350     0.0060 c3         1 LW2      -0.196100
      2 C2           2.7690    -0.0200    -0.2390 c          1 LW2       0.554100
      3 C3           1.3040    -0.0900    -0.6450 c3         1 LW2       0.029300
      4 C5           0.4310     0.5210     0.4590 c3         1 LW2       0.238600
      5 C7          -1.0230     0.5520     0.0940 cc         1 LW2      -0.263300
      6 C8          -1.8620     1.6190     0.2350 cd         1 LW2      -0.114000
      7 C9          -3.2060     1.3270    -0.1230 cd         1 LW2      -0.138000
      8 C10         -3.3630     0.0360    -0.5220 cc         1 LW2      -0.250000
      9 O4           0.9200    -1.4130    -0.8790 oh         1 LW2      -0.658000
     10 O6           0.6700    -0.1300     1.6870 oh         1 LW2      -0.652000
     11 O12          3.4020    -1.0460    -0.1290 o          1 LW2      -0.521100
     12 S11         -1.8840    -0.8270    -0.4870 ss         1 LW2       0.259000
     13 H1           3.1560     1.6300     1.0390 hc         1 LW2       0.069367
     14 H2           4.4320     1.3240    -0.1370 hc         1 LW2       0.069367
     15 H3           2.9070     2.0900    -0.6400 hc         1 LW2       0.069367
     16 H4           1.1870     0.5130    -1.5560 h1         1 LW2       0.084700
     17 H5           0.7320     1.5620     0.6060 h1         1 LW2       0.080700
     18 H6          -1.5260     2.5840     0.5900 ha         1 LW2       0.130000
     19 H7          -4.0120     2.0460    -0.0830 ha         1 LW2       0.134000
     20 H8          -4.2690    -0.4510    -0.8480 h4         1 LW2       0.149000
     21 H9           1.6690    -1.9800    -0.6430 ho         1 LW2       0.471000
     22 H10          0.4480    -1.0630     1.5900 ho         1 LW2       0.454000
@<TRIPOS>BOND
     1     1     2 1   
     2     1    13 1   
     3     1    14 1   
     4     1    15 1   
     5     2     3 1   
     6     2    11 2   
     7     3     4 1   
     8     3     9 1   
     9     3    16 1   
    10     4     5 1   
    11     4    10 1   
    12     4    17 1   
    13     5     6 2   
    14     5    12 1   
    15     6     7 1   
    16     6    18 1   
    17     7     8 2   
    18     7    19 1   
    19     8    12 1   
    20     8    20 1   
    21     9    21 1   
    22    10    22 1   
@<TRIPOS>SUBSTRUCTURE
     1 LW2         1 TEMP              0 ****  ****    0 ROOT
