@<TRIPOS>MOLECULE
LW3
   19    20     1     0     0
SMALL
abcg2


@<TRIPOS>ATOM
      1 C4        -107.3230  -173.6590   310.9090 c3         1 LW3      -0.018600
      2 C5        -106.3220  -174.0920   309.9400 c1         1 LW3       0.296900
      3 C6        -107.0670  -175.4820   312.7790 ca         1 LW3      -0.227900
      4 C7        -105.7850  -175.3960   313.3290 ca         1 LW3       0.006000
      5 C8        -105.4510  -176.2710   314.3370 ca         1 LW3      -0.058900
      6 N1        -108.9910  -175.2880   311.6430 nc         1 LW3      -0.496100
      7 N2        -105.5400  -174.4470   309.1760 n1         1 LW3      -0.447000
      8 BR        -103.7310  -176.1790   315.0900 br         1 LW3      -0.062100
      9 C         -106.3820  -177.2310   314.8060 ca         1 LW3       0.171000
     10 CL        -105.9420  -178.3090   316.0760 cl         1 LW3      -0.163000
     11 C2        -107.9740  -176.4410   313.2530 ca         1 LW3      -0.023200
     12 C1        -107.6460  -177.3320   314.2760 ca         1 LW3      -0.124000
     13 C3        -107.7870  -174.7930   311.7640 cd         1 LW3       0.352900
     14 N         -109.1040  -176.2720   312.5330 na         1 LW3      -0.048400
     15 H1        -106.8870  -172.8620   311.5150 hc         1 LW3       0.088200
     16 H2        -108.1650  -173.2300   310.3640 hc         1 LW3       0.088200
     17 H3        -105.0760  -174.6610   312.9720 ha         1 LW3       0.141000
     18 H5        -108.3480  -178.0700   314.6390 ha         1 LW3       0.140000
     19 H4        -109.9690  -176.7850   312.6070 hn         1 LW3       0.386000
@<TRIPOS>BOND
     1     1     2 1   
     2     1    13 1   
     3     1    15 1   
     4     1    16 1   
     5     2     7 3   
     6     3     4 ar  
     7     3    11 ar  
     8     3    13 1   
     9     4     5 ar  
    10     4    17 1   
    11     5     8 1   
    12     5     9 ar  
    13     6    13 2   
    14     6    14 1   
    15     9    10 1   
    16     9    12 ar  
    17    11    12 ar  
    18    11    14 1   
    19    12    18 1   
    20    14    19 1   
@<TRIPOS>SUBSTRUCTURE
     1 LW3         1 TEMP              0 ****  ****    0 ROOT
