@<TRIPOS>MOLECULE
LW3
   19    20     1     0     0
SMALL
No Charge or Current Charge


@<TRIPOS>ATOM
      1 C4         107.2760  -173.6600   310.9140 c3         1 LW3      -0.018600
      2 C5        -106.3310  -174.0930   309.8870 c1         1 LW3       0.296900
      3 C6         107.1030  -175.5100   312.7940 ca         1 LW3      -0.227900
      4 C7        -105.8100  -175.3820   313.3220 ca         1 LW3       0.006000
      5 C8         105.4420  -176.2640   314.3620 ca         1 LW3      -0.058900
      6 N1        -109.0400  -175.2730   311.5810 nc         1 LW3      -0.496100
      7 N2         105.5590  -174.4160   309.0770 n1         1 LW3      -0.447000
      8 Br        -103.6810  -176.1210   315.1120 br         1 LW3      -0.062100
      9 C          106.3640  -177.2360   314.8370 ca         1 LW3       0.171000
     10 Cl        -105.9210  -178.3440   316.1340 cl         1 LW3      -0.163000
     11 C2         107.9850  -176.4380   313.2460 ca         1 LW3      -0.023200
     12 C1        -107.6550  -177.3290   314.2740 ca         1 LW3      -0.124000
     13 C3         107.7950  -174.7950   311.7470 cd         1 LW3       0.352900
     14 N         -109.1580  -176.3100   312.5270 na         1 LW3      -0.048400
     15 H1         106.7790  -172.9270   311.5580 hc         1 LW3       0.088200
     16 H2        -108.1030  -173.1360   310.4250 hc         1 LW3       0.088200
     17 H3         105.1150  -174.6340   312.9480 ha         1 LW3       0.141000
     18 H5        -108.3660  -178.0690   314.6310 ha         1 LW3       0.140000
     19 H4         110.0070  -176.8640   312.6330 hn         1 LW3       0.386000
@<TRIPOS>BOND
     1     1     2 1   
     2     1    13 1   
     3     1    15 1   
     4     1    16 1   
     5     2     7 3   
     6     3     4 ar  
     7     3    11 ar  
     8     3    13 1   
     9     4     5 ar  
    10     4    17 1   
    11     5     8 1   
    12     5     9 ar  
    13     6    13 2   
    14     6    14 1   
    15     9    10 1   
    16     9    12 ar  
    17    11    12 ar  
    18    11    14 1   
    19    12    18 1   
    20    14    19 1   
@<TRIPOS>SUBSTRUCTURE
     1 LW3         1 TEMP              0 ****  ****    0 ROOT
