@<TRIPOS>MOLECULE
LW4
   55    60     1     0     0
SMALL
No Charge or Current Charge


@<TRIPOS>ATOM
      1 N1           0.9880     2.2560     1.9830 na         1 LW4      -0.207700
      2 C4           2.1780     2.6180     0.0810 ca         1 LW4      -0.056800
      3 C5           1.8570     1.2050     0.1330 cc         1 LW4      -0.128200
      4 C6           1.1110     1.0260     1.3000 cd         1 LW4      -0.109100
      5 C8           2.2190     0.0990    -0.7460 cc         1 LW4       0.011800
      6 C10          2.2670    -1.9820    -1.7760 c          1 LW4       0.580200
      7 C13          3.3280     0.0620    -1.7380 c          1 LW4       0.562200
      8 C20         -1.1170    -3.1210     1.0210 ca         1 LW4       0.088000
      9 C21          0.1850    -2.7870     0.5790 ca         1 LW4      -0.187000
     10 C22          1.2730    -3.6360     0.8810 ca         1 LW4      -0.046000
     11 C24          1.0590    -4.8260     1.5960 ca         1 LW4      -0.139000
     12 C26         -0.2330    -5.1690     2.0210 ca         1 LW4      -0.071000
     13 C28         -1.3130    -4.3170     1.7370 ca         1 LW4      -0.117000
     14 C3           1.6450     3.1900     1.2090 ca         1 LW4      -0.060200
     15 C9           1.6050    -1.1550    -0.7520 cd         1 LW4      -0.276000
     16 N11          3.2430    -1.1850    -2.2560 ns         1 LW4      -0.490500
     17 O14          4.1840     0.8800    -2.0290 o          1 LW4      -0.474000
     18 O15          2.0020    -3.1080    -2.1580 o          1 LW4      -0.474000
     19 C16          0.3420    -1.5710    -0.1290 ca         1 LW4       0.260800
     20 N17         -0.7160    -0.7830    -0.3910 nb         1 LW4      -0.220000
     21 C18         -1.9170    -1.1710     0.0770 ca         1 LW4       0.407900
     22 N19         -2.1570    -2.3040     0.7670 nb         1 LW4      -0.267000
     23 N30         -3.0210    -0.3080    -0.1660 nh         1 LW4      -0.775300
     24 C31         -4.4410    -0.8070    -0.0760 c6         1 LW4       0.225300
     25 C34         -5.4780     0.3320     0.1870 c6         1 LW4       0.138300
     26 N37         -5.3550     1.4690    -0.7730 n3         1 LW4      -0.707600
     27 C38         -3.9640     2.0080    -0.7280 c6         1 LW4       0.138300
     28 C41         -2.8770     0.9250    -1.0210 c6         1 LW4       0.225300
     29 C44         -6.3790     2.5130    -0.5530 c3         1 LW4       0.148100
     30 C48          2.8140     3.4140    -0.8910 ca         1 LW4      -0.050000
     31 C50          2.9450     4.7980    -0.6490 ca         1 LW4      -0.132000
     32 C52          2.4270     5.3710     0.5330 ca         1 LW4      -0.091000
     33 C54          1.7580     4.5630     1.4720 ca         1 LW4      -0.125000
     34 HN1          0.5190     2.4180     2.8690 hn         1 LW4       0.355000
     35 H6           0.7090     0.1170     1.7360 h4         1 LW4       0.223000
     36 H24          1.8980    -5.4790     1.8260 ha         1 LW4       0.118000
     37 H26         -0.3980    -6.0900     2.5760 ha         1 LW4       0.114000
     38 H28         -2.3110    -4.5840     2.0770 ha         1 LW4       0.131000
     39 HN11         3.8760    -1.5010    -2.9750 hn         1 LW4       0.352500
     40 H31         -4.7130    -1.3150    -1.0130 h1         1 LW4       0.070700
     41 H31A        -4.5580    -1.5420     0.7330 h1         1 LW4       0.070700
     42 H34         -6.4880    -0.1000     0.1370 h1         1 LW4       0.040200
     43 H34A        -5.3380     0.6950     1.2170 h1         1 LW4       0.040200
     44 H38         -3.8490     2.8220    -1.4590 h1         1 LW4       0.040200
     45 H38A        -3.7620     2.4400     0.2630 h1         1 LW4       0.040200
     46 H41         -1.8990     1.4030    -0.8690 h1         1 LW4       0.070700
     47 H41A        -2.9390     0.6470    -2.0840 h1         1 LW4       0.070700
     48 H44         -6.2740     2.9630     0.4430 h1         1 LW4       0.031700
     49 H44A        -6.2850     3.3100    -1.3020 h1         1 LW4       0.031700
     50 H44B        -7.3880     2.0890    -0.6350 h1         1 LW4       0.031700
     51 H48          3.1690     3.0080    -1.8290 ha         1 LW4       0.127000
     52 H50          3.4360     5.4300    -1.3860 ha         1 LW4       0.115000
     53 H52          2.5280     6.4390     0.7090 ha         1 LW4       0.113000
     54 H54          1.3320     4.9970     2.3740 ha         1 LW4       0.114000
     55 H22          2.2860    -3.3820     0.5800 ha         1 LW4       0.115000
@<TRIPOS>BOND
     1     1     4 1   
     2     1    14 1   
     3     1    34 1   
     4     2     3 1   
     5     2    14 ar  
     6     2    30 ar  
     7     3     4 2   
     8     3     5 1   
     9     4    35 1   
    10     5     7 1   
    11     5    15 2   
    12     6    15 1   
    13     6    16 1   
    14     6    18 2   
    15     7    16 1   
    16     7    17 2   
    17     8     9 ar  
    18     8    13 ar  
    19     8    22 ar  
    20     9    10 ar  
    21     9    19 ar  
    22    10    11 ar  
    23    10    55 1   
    24    11    12 ar  
    25    11    36 1   
    26    12    13 ar  
    27    12    37 1   
    28    13    38 1   
    29    14    33 ar  
    30    15    19 1   
    31    16    39 1   
    32    19    20 ar  
    33    20    21 ar  
    34    21    22 ar  
    35    21    23 1   
    36    23    24 1   
    37    23    28 1   
    38    24    25 1   
    39    24    40 1   
    40    24    41 1   
    41    25    26 1   
    42    25    42 1   
    43    25    43 1   
    44    26    27 1   
    45    26    29 1   
    46    27    28 1   
    47    27    44 1   
    48    27    45 1   
    49    28    46 1   
    50    28    47 1   
    51    29    48 1   
    52    29    49 1   
    53    29    50 1   
    54    30    31 ar  
    55    30    51 1   
    56    31    32 ar  
    57    31    52 1   
    58    32    33 ar  
    59    32    53 1   
    60    33    54 1   
@<TRIPOS>SUBSTRUCTURE
     1 LW4         1 TEMP              0 ****  ****    0 ROOT
