@<TRIPOS>MOLECULE
LW4
   55    60     1     0     0
SMALL
abcg2


@<TRIPOS>ATOM
      1 N1           0.9380     2.0310     2.1020 na         1 LW4      -0.207700
      2 C4           1.9100     2.5110     0.1370 ca         1 LW4      -0.056800
      3 C5           1.7540     1.0830     0.2530 cc         1 LW4      -0.128200
      4 C6           1.1410     0.8600     1.4670 cd         1 LW4      -0.109100
      5 C8           2.1140     0.0390    -0.6650 cc         1 LW4       0.011800
      6 C10          2.2940    -1.9110    -1.8810 c          1 LW4       0.580200
      7 C13          3.3930     0.0350    -1.4650 c          1 LW4       0.562200
      8 C20         -1.2210    -3.0240     0.8800 ca         1 LW4       0.088000
      9 C21          0.0960    -2.6820     0.4910 ca         1 LW4      -0.187000
     10 C22          1.1990    -3.4010     0.9910 ca         1 LW4      -0.046000
     11 C24          0.9990    -4.4550     1.8430 ca         1 LW4      -0.139000
     12 C26         -0.3120    -4.8150     2.2160 ca         1 LW4      -0.071000
     13 C28         -1.3990    -4.1210     1.7550 ca         1 LW4      -0.117000
     14 C3           1.3780     3.0660     1.3190 ca         1 LW4      -0.060200
     15 C9           1.4950    -1.1290    -0.9070 cd         1 LW4      -0.276000
     16 N11          3.4040    -1.1440    -2.1660 ns         1 LW4      -0.490500
     17 O14          4.2530     0.8760    -1.4720 o          1 LW4      -0.474000
     18 O15          2.0330    -2.9890    -2.3530 o          1 LW4      -0.474000
     19 C16          0.1880    -1.5880    -0.4070 ca         1 LW4       0.260800
     20 N17         -0.8540    -0.9310    -0.8220 nb         1 LW4      -0.220000
     21 C18         -2.0760    -1.3140    -0.3600 ca         1 LW4       0.407900
     22 N19         -2.2900    -2.3310     0.4520 nb         1 LW4      -0.267000
     23 N30         -3.1270    -0.5850    -0.7890 nh         1 LW4      -0.775300
     24 C31         -4.4810    -0.8250    -0.3380 c6         1 LW4       0.225300
     25 C34         -5.0520     0.4350     0.2900 c6         1 LW4       0.138300
     26 N37         -4.9830     1.5560    -0.6290 n3         1 LW4      -0.707600
     27 C38         -3.6110     1.7890    -1.0380 c6         1 LW4       0.138300
     28 C41         -3.0160     0.5500    -1.6830 c6         1 LW4       0.225300
     29 C44         -5.5570     2.7440    -0.0370 c3         1 LW4       0.148100
     30 C48          2.3890     3.3790    -0.8510 ca         1 LW4      -0.050000
     31 C50          2.3440     4.7400    -0.6250 ca         1 LW4      -0.132000
     32 C52          1.8310     5.2660     0.5720 ca         1 LW4      -0.091000
     33 C54          1.3370     4.4370     1.5580 ca         1 LW4      -0.125000
     34 HN1          0.4910     2.1240     3.0000 hn         1 LW4       0.355000
     35 H6           0.8800    -0.0740     1.9390 h4         1 LW4       0.223000
     36 H24          1.8410    -5.0120     2.2310 ha         1 LW4       0.118000
     37 H26         -0.4590    -5.6550     2.8840 ha         1 LW4       0.114000
     38 H28         -2.4050    -4.3950     2.0470 ha         1 LW4       0.131000
     39 HN11         4.1440    -1.4230    -2.7950 hn         1 LW4       0.352500
     40 H31         -5.0980    -1.1210    -1.1940 h1         1 LW4       0.070700
     41 H31A        -4.4940    -1.6390     0.3810 h1         1 LW4       0.070700
     42 H34         -6.0950     0.2530     0.5560 h1         1 LW4       0.040200
     43 H34A        -4.5100     0.6490     1.2290 h1         1 LW4       0.040200
     44 H38         -3.5850     2.6070    -1.7610 h1         1 LW4       0.040200
     45 H38A        -2.9760     2.0900    -0.1840 h1         1 LW4       0.040200
     46 H41         -1.9760     0.7230    -1.9380 h1         1 LW4       0.070700
     47 H41A        -3.5580     0.3250    -2.6080 h1         1 LW4       0.070700
     48 H44         -5.0260     3.0690     0.8710 h1         1 LW4       0.031700
     49 H44A        -5.5340     3.5690    -0.7510 h1         1 LW4       0.031700
     50 H44B        -6.5990     2.5650     0.2310 h1         1 LW4       0.031700
     51 H48          2.7850     3.0010    -1.7820 ha         1 LW4       0.127000
     52 H50          2.7120     5.4180    -1.3850 ha         1 LW4       0.115000
     53 H52          1.8190     6.3380     0.7210 ha         1 LW4       0.113000
     54 H54          0.9410     4.8330     2.4840 ha         1 LW4       0.114000
     55 H22          2.2060    -3.1090     0.7190 ha         1 LW4       0.115000
@<TRIPOS>BOND
     1     1     4 1   
     2     1    14 1   
     3     1    34 1   
     4     2     3 1   
     5     2    14 ar  
     6     2    30 ar  
     7     3     4 2   
     8     3     5 1   
     9     4    35 1   
    10     5     7 1   
    11     5    15 2   
    12     6    15 1   
    13     6    16 1   
    14     6    18 2   
    15     7    16 1   
    16     7    17 2   
    17     8     9 ar  
    18     8    13 ar  
    19     8    22 ar  
    20     9    10 ar  
    21     9    19 ar  
    22    10    11 ar  
    23    10    55 1   
    24    11    12 ar  
    25    11    36 1   
    26    12    13 ar  
    27    12    37 1   
    28    13    38 1   
    29    14    33 ar  
    30    15    19 1   
    31    16    39 1   
    32    19    20 ar  
    33    20    21 ar  
    34    21    22 ar  
    35    21    23 1   
    36    23    24 1   
    37    23    28 1   
    38    24    25 1   
    39    24    40 1   
    40    24    41 1   
    41    25    26 1   
    42    25    42 1   
    43    25    43 1   
    44    26    27 1   
    45    26    29 1   
    46    27    28 1   
    47    27    44 1   
    48    27    45 1   
    49    28    46 1   
    50    28    47 1   
    51    29    48 1   
    52    29    49 1   
    53    29    50 1   
    54    30    31 ar  
    55    30    51 1   
    56    31    32 ar  
    57    31    52 1   
    58    32    33 ar  
    59    32    53 1   
    60    33    54 1   
@<TRIPOS>SUBSTRUCTURE
     1 LW4         1 TEMP              0 ****  ****    0 ROOT
