@<TRIPOS>MOLECULE
LW5
   57    59     1     0     0
SMALL
No Charge or Current Charge


@<TRIPOS>ATOM
      1 N12         25.0180    49.2160     0.4310 ns         1 LW5      -0.144000
      2 C13         24.6900    47.9350     0.8510 c          1 LW5       0.601100
      3 C21         21.6380    52.3040    -6.9270 c6         1 LW5      -0.087400
      4 C22         20.9710    53.0200    -8.1300 c6         1 LW5      -0.088900
      5 C26         19.1920    53.9660    -6.5700 c6         1 LW5      -0.088900
      6 C28         28.0560    50.4950    -3.0220 ca         1 LW5      -0.132300
      7 C01         29.1550    51.1820    -0.8340 c3         1 LW5      -0.087100
      8 C02         27.9000    51.2840    -1.7190 c3         1 LW5       0.225600
      9 O04         26.8060    50.7450    -0.9510 os         1 LW5      -0.365100
     10 C05         25.4890    50.7710    -1.3790 ca         1 LW5       0.136100
     11 C06         25.0700    51.5510    -2.4800 ca         1 LW5      -0.142000
     12 C07         23.7200    51.5630    -2.8990 ca         1 LW5      -0.095600
     13 C08         22.7890    50.7850    -2.1700 ca         1 LW5      -0.156000
     14 C09         23.2010    50.0140    -1.0720 ca         1 LW5       0.201000
     15 F10         22.2570    49.3490    -0.3700 f          1 LW5      -0.162000
     16 C11         24.5560    49.9850    -0.6760 ca         1 LW5      -0.097000
     17 C14         25.3750    47.5040     2.1440 c3         1 LW5      -0.173100
     18 O15         23.9430    47.1820     0.2360 o          1 LW5      -0.580100
     19 O17         24.1120    53.1190    -4.6950 o          1 LW5      -0.608100
     20 N18         21.9890    52.3550    -4.4700 ns         1 LW5      -0.498900
     21 C19         21.3900    53.0730    -5.6010 c6         1 LW5       0.106700
     22 C23         19.4510    53.2110    -7.8990 c6         1 LW5       0.166300
     23 O25         18.8820    53.9350    -8.9930 oh         1 LW5      -0.664000
     24 C27         19.8660    53.2450    -5.3740 c6         1 LW5      -0.087400
     25 C29         28.2220    51.1770    -4.2450 ca         1 LW5      -0.090000
     26 C30         28.3610    50.4600    -5.4460 ca         1 LW5      -0.110000
     27 C31         28.3370    49.0550    -5.4340 ca         1 LW5      -0.101000
     28 C32         28.1750    48.3680    -4.2200 ca         1 LW5      -0.110000
     29 C33         28.0360    49.0840    -3.0190 ca         1 LW5      -0.090000
     30 H1          25.7210    49.6780     0.9930 hn         1 LW5       0.162000
     31 H3          22.7170    52.2120    -7.1090 hc         1 LW5       0.048700
     32 H4          21.1380    52.4360    -9.0450 hc         1 LW5       0.054700
     33 H5          21.4510    53.9960    -8.2890 hc         1 LW5       0.054700
     34 H6          19.5750    54.9930    -6.6430 hc         1 LW5       0.054700
     35 H7          18.1110    54.0470    -6.3890 hc         1 LW5       0.054700
     36 H8          29.0260    51.7660     0.0840 hc         1 LW5       0.051367
     37 H9          29.3570    50.1400    -0.5590 hc         1 LW5       0.051367
     38 H10         30.0290    51.5720    -1.3690 hc         1 LW5       0.051367
     39 H11         27.7270    52.3460    -1.9390 h1         1 LW5       0.056700
     40 H12         25.7860    52.1590    -3.0230 ha         1 LW5       0.150000
     41 H13         21.7340    50.7760    -2.4280 ha         1 LW5       0.134000
     42 H14         25.1130    46.4820     2.4410 hc         1 LW5       0.063700
     43 H15         26.4580    47.6290     2.0330 hc         1 LW5       0.063700
     44 H16         25.1380    48.2290     2.9320 hc         1 LW5       0.063700
     45 H17         21.3920    51.7480    -3.9250 hn         1 LW5       0.314500
     46 H18         21.8530    54.0700    -5.6710 h1         1 LW5       0.083700
     47 H19         18.9850    52.2170    -7.8310 h1         1 LW5       0.029700
     48 H20         17.9120    53.9590    -8.8410 ho         1 LW5       0.440000
     49 H21         19.6900    53.8180    -4.4540 hc         1 LW5       0.048700
     50 H22         19.3950    52.2630    -5.2260 hc         1 LW5       0.048700
     51 H23         28.2430    52.2650    -4.2670 ha         1 LW5       0.119000
     52 H24         28.4870    50.9930    -6.3850 ha         1 LW5       0.116000
     53 H25         28.4440    48.5010    -6.3640 ha         1 LW5       0.115000
     54 H26         28.1560    47.2800    -4.2090 ha         1 LW5       0.116000
     55 H27         27.9080    48.5410    -2.0840 ha         1 LW5       0.119000
     56 C16         23.3140    52.4120    -4.0930 c          1 LW5       0.610700
     57 H2          21.2470    51.2800    -6.8440 hc         1 LW5       0.048700
@<TRIPOS>BOND
     1     1     2 1   
     2     1    16 1   
     3     1    30 1   
     4     2    17 1   
     5     2    18 2   
     6     3     4 1   
     7     3    21 1   
     8     3    31 1   
     9     3    57 1   
    10     4    22 1   
    11     4    32 1   
    12     4    33 1   
    13     5    22 1   
    14     5    24 1   
    15     5    34 1   
    16     5    35 1   
    17     6     8 1   
    18     6    25 ar  
    19     6    29 ar  
    20     7     8 1   
    21     7    36 1   
    22     7    37 1   
    23     7    38 1   
    24     8     9 1   
    25     8    39 1   
    26     9    10 1   
    27    10    11 ar  
    28    10    16 ar  
    29    11    12 ar  
    30    11    40 1   
    31    12    13 ar  
    32    12    56 1   
    33    13    14 ar  
    34    13    41 1   
    35    14    15 1   
    36    14    16 ar  
    37    17    42 1   
    38    17    43 1   
    39    17    44 1   
    40    19    56 2   
    41    20    21 1   
    42    20    45 1   
    43    20    56 1   
    44    21    24 1   
    45    21    46 1   
    46    22    23 1   
    47    22    47 1   
    48    23    48 1   
    49    24    49 1   
    50    24    50 1   
    51    25    26 ar  
    52    25    51 1   
    53    26    27 ar  
    54    26    52 1   
    55    27    28 ar  
    56    27    53 1   
    57    28    29 ar  
    58    28    54 1   
    59    29    55 1   
@<TRIPOS>SUBSTRUCTURE
     1 LW5         1 TEMP              0 ****  ****    0 ROOT
