@<TRIPOS>MOLECULE
LW5
   57    59     1     0     0
SMALL
abcg2


@<TRIPOS>ATOM
      1 N12         25.0120    49.4520     0.6460 ns         1 LW5      -0.144000
      2 C13         24.7350    48.1290     0.8450 c          1 LW5       0.601100
      3 C21         21.8490    52.1870    -6.8080 c6         1 LW5      -0.087400
      4 C22         21.2590    52.8850    -8.0340 c6         1 LW5      -0.088900
      5 C26         19.3850    53.7790    -6.6220 c6         1 LW5      -0.088900
      6 C28         27.8410    50.5000    -3.1760 ca         1 LW5      -0.132300
      7 C01         29.0870    51.0340    -1.0530 c3         1 LW5      -0.087100
      8 C02         27.7930    51.1950    -1.8340 c3         1 LW5       0.225600
      9 O04         26.7610    50.6440    -0.9880 os         1 LW5      -0.365100
     10 C05         25.4590    50.8330    -1.3070 ca         1 LW5       0.136100
     11 C06         25.0030    51.5870    -2.3810 ca         1 LW5      -0.142000
     12 C07         23.6360    51.7040    -2.6290 ca         1 LW5      -0.095600
     13 C08         22.7140    51.0970    -1.7790 ca         1 LW5      -0.156000
     14 C09         23.1890    50.3750    -0.7010 ca         1 LW5       0.201000
     15 F10         22.2960    49.8500     0.1640 f          1 LW5      -0.162000
     16 C11         24.5420    50.2000    -0.4480 ca         1 LW5      -0.097000
     17 C14         25.4150    47.5040     2.0370 c3         1 LW5      -0.173100
     18 O15         23.9790    47.4970     0.1180 o          1 LW5      -0.580100
     19 O17         23.9740    53.3880    -4.2770 o          1 LW5      -0.608100
     20 N18         22.0160    52.2470    -4.3450 ns         1 LW5      -0.498900
     21 C19         21.4810    52.9280    -5.5180 c6         1 LW5       0.106700
     22 C23         19.7520    53.0380    -7.9040 c6         1 LW5       0.166300
     23 O25         19.2850    53.7350    -9.0680 oh         1 LW5      -0.664000
     24 C27         19.9670    53.0850    -5.3890 c6         1 LW5      -0.087400
     25 C29         28.1690    51.2270    -4.3190 ca         1 LW5      -0.090000
     26 C30         28.2590    50.5960    -5.5550 ca         1 LW5      -0.110000
     27 C31         28.0140    49.2310    -5.6600 ca         1 LW5      -0.101000
     28 C32         27.6820    48.5010    -4.5220 ca         1 LW5      -0.110000
     29 C33         27.5990    49.1320    -3.2860 ca         1 LW5      -0.090000
     30 H1          25.7910    49.8450     1.1540 hn         1 LW5       0.162000
     31 H3          22.9350    52.1230    -6.8950 hc         1 LW5       0.048700
     32 H4          21.4950    52.3240    -8.9410 hc         1 LW5       0.054700
     33 H5          21.6990    53.8820    -8.1420 hc         1 LW5       0.054700
     34 H6          19.7740    54.8000    -6.6910 hc         1 LW5       0.054700
     35 H7          18.2970    53.8490    -6.5340 hc         1 LW5       0.054700
     36 H8          29.0210    51.5570    -0.0990 hc         1 LW5       0.051367
     37 H9          29.2890    49.9770    -0.8700 hc         1 LW5       0.051367
     38 H10         29.9130    51.4520    -1.6280 hc         1 LW5       0.051367
     39 H11         27.5880    52.2580    -1.9820 h1         1 LW5       0.056700
     40 H12         25.6880    52.0750    -3.0530 ha         1 LW5       0.150000
     41 H13         21.6450    51.2040    -1.9040 ha         1 LW5       0.134000
     42 H14         25.9000    46.5810     1.7190 hc         1 LW5       0.063700
     43 H15         26.1470    48.1600     2.5050 hc         1 LW5       0.063700
     44 H16         24.6520    47.2440     2.7730 hc         1 LW5       0.063700
     45 H17         21.5080    51.4450    -4.0070 hn         1 LW5       0.314500
     46 H18         21.9430    53.9160    -5.5390 h1         1 LW5       0.083700
     47 H19         19.2960    52.0390    -7.8770 h1         1 LW5       0.029700
     48 H20         18.3240    53.8150    -9.0060 ho         1 LW5       0.440000
     49 H21         19.7310    53.6530    -4.4870 hc         1 LW5       0.048700
     50 H22         19.5160    52.0930    -5.2740 hc         1 LW5       0.048700
     51 H23         28.3460    52.2930    -4.2410 ha         1 LW5       0.119000
     52 H24         28.5120    51.1730    -6.4370 ha         1 LW5       0.116000
     53 H25         28.0760    48.7390    -6.6230 ha         1 LW5       0.115000
     54 H26         27.4850    47.4390    -4.5980 ha         1 LW5       0.116000
     55 H27         27.3340    48.5620    -2.4040 ha         1 LW5       0.119000
     56 C16         23.2250    52.5200    -3.8200 c          1 LW5       0.610700
     57 H2          21.4680    51.1630    -6.7420 hc         1 LW5       0.048700
@<TRIPOS>BOND
     1     1     2 1   
     2     1    16 1   
     3     1    30 1   
     4     2    17 1   
     5     2    18 2   
     6     3     4 1   
     7     3    21 1   
     8     3    31 1   
     9     3    57 1   
    10     4    22 1   
    11     4    32 1   
    12     4    33 1   
    13     5    22 1   
    14     5    24 1   
    15     5    34 1   
    16     5    35 1   
    17     6     8 1   
    18     6    25 ar  
    19     6    29 ar  
    20     7     8 1   
    21     7    36 1   
    22     7    37 1   
    23     7    38 1   
    24     8     9 1   
    25     8    39 1   
    26     9    10 1   
    27    10    11 ar  
    28    10    16 ar  
    29    11    12 ar  
    30    11    40 1   
    31    12    13 ar  
    32    12    56 1   
    33    13    14 ar  
    34    13    41 1   
    35    14    15 1   
    36    14    16 ar  
    37    17    42 1   
    38    17    43 1   
    39    17    44 1   
    40    19    56 2   
    41    20    21 1   
    42    20    45 1   
    43    20    56 1   
    44    21    24 1   
    45    21    46 1   
    46    22    23 1   
    47    22    47 1   
    48    23    48 1   
    49    24    49 1   
    50    24    50 1   
    51    25    26 ar  
    52    25    51 1   
    53    26    27 ar  
    54    26    52 1   
    55    27    28 ar  
    56    27    53 1   
    57    28    29 ar  
    58    28    54 1   
    59    29    55 1   
@<TRIPOS>SUBSTRUCTURE
     1 LW5         1 TEMP              0 ****  ****    0 ROOT
