@<TRIPOS>MOLECULE
LW6
   18    19     1     0     0
SMALL
abcg2


@<TRIPOS>ATOM
      1 N1           5.0610    -4.1350    24.2910 na         1 LW6      -0.230700
      2 C4           7.2440    -4.2500    20.0400 c          1 LW6       0.583500
      3 C5           6.9680    -3.5960    21.3130 ca         1 LW6      -0.154600
      4 C6           7.5880    -2.3710    21.5700 ca         1 LW6      -0.087000
      5 C7           7.3850    -1.6780    22.7660 ca         1 LW6      -0.116000
      6 C8           6.5480    -2.1920    23.7490 ca         1 LW6      -0.091000
      7 C10          4.7020    -5.2800    23.6320 cc         1 LW6      -0.154100
      8 C9           5.9240    -3.4110    23.5040 ca         1 LW6      -0.070200
      9 C12          6.1100    -4.1420    22.2970 ca         1 LW6      -0.039800
     10 C11          5.3210    -5.3260    22.4050 cd         1 LW6      -0.230200
     11 O1           6.7900    -5.3240    19.6750 o          1 LW6      -0.526100
     12 H1           4.7400    -3.8670    25.2070 hn         1 LW6       0.351000
     13 H2           7.9310    -3.6870    19.3810 h4         1 LW6      -0.015800
     14 H3           8.2440    -1.9530    20.8150 ha         1 LW6       0.112000
     15 H4           7.8840    -0.7320    22.9300 ha         1 LW6       0.116000
     16 H5           6.3860    -1.6620    24.6790 ha         1 LW6       0.114000
     17 H6           4.0250    -5.9830    24.0900 h4         1 LW6       0.215000
     18 H7           5.2220    -6.1080    21.6750 ha         1 LW6       0.225000
@<TRIPOS>BOND
     1     1     7 1   
     2     1     8 1   
     3     1    12 1   
     4     2     3 1   
     5     2    11 2   
     6     2    13 1   
     7     3     4 ar  
     8     3     9 ar  
     9     4     5 ar  
    10     4    14 1   
    11     5     6 ar  
    12     5    15 1   
    13     6     8 ar  
    14     6    16 1   
    15     7    10 2   
    16     7    17 1   
    17     8     9 ar  
    18     9    10 1   
    19    10    18 1   
@<TRIPOS>SUBSTRUCTURE
     1 LW6         1 TEMP              0 ****  ****    0 ROOT
