@<TRIPOS>MOLECULE
LW6
   18    19     1     0     0
SMALL
No Charge or Current Charge


@<TRIPOS>ATOM
      1 N1           5.0540    -4.1410    24.2950 na         1 LW6      -0.230700
      2 C4           7.2350    -4.2940    20.0010 c          1 LW6       0.583500
      3 C5           6.9820    -3.5830    21.3070 ca         1 LW6      -0.154600
      4 C6           7.6130    -2.3400    21.5640 ca         1 LW6      -0.087000
      5 C7           7.3940    -1.6500    22.7810 ca         1 LW6      -0.116000
      6 C8           6.5400    -2.1880    23.7660 ca         1 LW6      -0.091000
      7 C10          4.6670    -5.3290    23.6410 cc         1 LW6      -0.154100
      8 C9           5.9250    -3.4160    23.4950 ca         1 LW6      -0.070200
      9 C12          6.1360    -4.0850    22.3180 ca         1 LW6      -0.039800
     10 C11          5.3390    -5.2840    22.4270 cd         1 LW6      -0.230200
     11 O1           6.7360    -5.3710    19.6880 o          1 LW6      -0.526100
     12 H1           4.7420    -3.8530    25.2190 hn         1 LW6       0.351000
     13 H2           7.9260    -3.7730    19.3020 h4         1 LW6      -0.015800
     14 H3           8.2770    -1.9040    20.8190 ha         1 LW6       0.112000
     15 H4           7.8880    -0.6980    22.9570 ha         1 LW6       0.116000
     16 H5           6.3660    -1.6650    24.7030 ha         1 LW6       0.114000
     17 H6           3.9880    -6.0630    24.0690 h4         1 LW6       0.215000
     18 H7           5.2640    -6.0580    21.6670 ha         1 LW6       0.225000
@<TRIPOS>BOND
     1     1     7 1   
     2     1     8 1   
     3     1    12 1   
     4     2     3 1   
     5     2    11 2   
     6     2    13 1   
     7     3     4 ar  
     8     3     9 ar  
     9     4     5 ar  
    10     4    14 1   
    11     5     6 ar  
    12     5    15 1   
    13     6     8 ar  
    14     6    16 1   
    15     7    10 2   
    16     7    17 1   
    17     8     9 ar  
    18     9    10 1   
    19    10    18 1   
@<TRIPOS>SUBSTRUCTURE
     1 LW6         1 TEMP              0 ****  ****    0 ROOT
