@<TRIPOS>MOLECULE
LW7
   35    37     1     0     0
SMALL
No Charge or Current Charge


@<TRIPOS>ATOM
      1 C01          2.1030    -0.2730    -0.0730 ca         1 LW7      -0.183900
      2 C02          0.9280     0.6320    -0.3590 ce         1 LW7       0.470900
      3 C03         -0.4750     0.0330    -0.2880 c3         1 LW7      -0.112700
      4 C04         -1.6260     1.0470    -0.0730 c3         1 LW7      -0.022100
      5 C05         -2.9800     0.3570     0.0290 ca         1 LW7      -0.081300
      6 C06         -3.4780    -0.0510     1.2820 ca         1 LW7      -0.108500
      7 C07         -4.7250    -0.6930     1.3750 ca         1 LW7      -0.110000
      8 C08         -5.4810    -0.9320     0.2150 ca         1 LW7      -0.113000
      9 C09         -4.9890    -0.5300    -1.0380 ca         1 LW7      -0.110000
     10 C10         -3.7420     0.1120    -1.1300 ca         1 LW7      -0.108500
     11 C12          2.4740     2.4700    -0.6350 c6         1 LW7       0.103800
     12 C13          3.4630     1.8120     0.3470 c6         1 LW7      -0.061100
     13 C14          3.3500     0.2960     0.2680 ca         1 LW7      -0.059300
     14 C15          4.4630    -0.5220     0.5360 ca         1 LW7      -0.110000
     15 C16          4.3480    -1.9180     0.4440 ca         1 LW7      -0.094000
     16 C17          3.1210    -2.4950     0.0800 ca         1 LW7      -0.119000
     17 C18          2.0060    -1.6810    -0.1820 ca         1 LW7      -0.079000
     18 N11          1.1110     1.9100    -0.5440 n2         1 LW7      -0.587900
     19 H1          -0.6740    -0.5120    -1.2180 hc         1 LW7       0.055200
     20 H2          -1.4300     1.6260     0.8390 hc         1 LW7       0.061200
     21 H3          -2.8970     0.1280     2.1850 ha         1 LW7       0.111000
     22 H4          -5.1040    -1.0060     2.3460 ha         1 LW7       0.111000
     23 H5          -6.4460    -1.4290     0.2870 ha         1 LW7       0.111000
     24 H6          -5.5730    -0.7150    -1.9360 ha         1 LW7       0.111000
     25 H7          -3.3670     0.4190    -2.1050 ha         1 LW7       0.111000
     26 H8           2.4330     3.5540    -0.4490 h1         1 LW7       0.061200
     27 H9           2.8370     2.3260    -1.6630 h1         1 LW7       0.061200
     28 H10          4.4860     2.1420     0.1220 hc         1 LW7       0.059200
     29 H11          3.2410     2.1400     1.3720 hc         1 LW7       0.059200
     30 H12          5.4170    -0.0770     0.8090 ha         1 LW7       0.114000
     31 H13          5.2100    -2.5510     0.6480 ha         1 LW7       0.114000
     32 H14          3.0340    -3.5760    -0.0010 ha         1 LW7       0.115000
     33 H15          1.0730    -2.1570    -0.4730 ha         1 LW7       0.116000
     34 H16         -0.5190    -0.7060     0.5200 hc         1 LW7       0.055200
     35 H17         -1.6370     1.7690    -0.8990 hc         1 LW7       0.061200
@<TRIPOS>BOND
     1     1     2 1   
     2     1    13 ar  
     3     1    17 ar  
     4     2     3 1   
     5     2    18 2   
     6     3     4 1   
     7     3    19 1   
     8     3    34 1   
     9     4     5 1   
    10     4    20 1   
    11     4    35 1   
    12     5     6 ar  
    13     5    10 ar  
    14     6     7 ar  
    15     6    21 1   
    16     7     8 ar  
    17     7    22 1   
    18     8     9 ar  
    19     8    23 1   
    20     9    10 ar  
    21     9    24 1   
    22    10    25 1   
    23    11    12 1   
    24    11    18 1   
    25    11    26 1   
    26    11    27 1   
    27    12    13 1   
    28    12    28 1   
    29    12    29 1   
    30    13    14 ar  
    31    14    15 ar  
    32    14    30 1   
    33    15    16 ar  
    34    15    31 1   
    35    16    17 ar  
    36    16    32 1   
    37    17    33 1   
@<TRIPOS>SUBSTRUCTURE
     1 LW7         1 TEMP              0 ****  ****    0 ROOT
