@<TRIPOS>MOLECULE
LW7
   35    37     1     0     0
SMALL
abcg2


@<TRIPOS>ATOM
      1 C01          2.0790    -0.2810    -0.0560 ca         1 LW7      -0.183900
      2 C02          0.9210     0.6350    -0.1970 ce         1 LW7       0.470900
      3 C03         -0.4600     0.0430    -0.1130 c3         1 LW7      -0.112700
      4 C04         -1.5910     1.0680    -0.1370 c3         1 LW7      -0.022100
      5 C05         -2.9290     0.3930    -0.0160 ca         1 LW7      -0.081300
      6 C06         -3.4930     0.1430     1.2330 ca         1 LW7      -0.108500
      7 C07         -4.7110    -0.5140     1.3480 ca         1 LW7      -0.110000
      8 C08         -5.3870    -0.9350     0.2100 ca         1 LW7      -0.113000
      9 C09         -4.8360    -0.6920    -1.0420 ca         1 LW7      -0.110000
     10 C10         -3.6170    -0.0350    -1.1500 ca         1 LW7      -0.108500
     11 C12          2.3850     2.4380    -0.4880 c6         1 LW7       0.103800
     12 C13          3.3860     1.7660     0.4360 c6         1 LW7      -0.061100
     13 C14          3.3250     0.2800     0.2470 ca         1 LW7      -0.059300
     14 C15          4.4310    -0.5440     0.3930 ca         1 LW7      -0.110000
     15 C16          4.3130    -1.9190     0.2330 ca         1 LW7      -0.094000
     16 C17          3.0800    -2.4780    -0.0720 ca         1 LW7      -0.119000
     17 C18          1.9670    -1.6620    -0.2120 ca         1 LW7      -0.079000
     18 N11          1.0480     1.8840    -0.3900 n2         1 LW7      -0.587900
     19 H1          -0.5940    -0.6630    -0.9400 hc         1 LW7       0.055200
     20 H2          -1.4540     1.7800     0.6790 hc         1 LW7       0.061200
     21 H3          -2.9760     0.4700     2.1280 ha         1 LW7       0.111000
     22 H4          -5.1350    -0.6950     2.3280 ha         1 LW7       0.111000
     23 H5          -6.3370    -1.4460     0.2980 ha         1 LW7       0.111000
     24 H6          -5.3560    -1.0100    -1.9360 ha         1 LW7       0.111000
     25 H7          -3.1960     0.1530    -2.1310 ha         1 LW7       0.111000
     26 H8           2.3320     3.5060    -0.2730 h1         1 LW7       0.061200
     27 H9           2.7190     2.3500    -1.5290 h1         1 LW7       0.061200
     28 H10          4.3920     2.1450     0.2480 hc         1 LW7       0.059200
     29 H11          3.1440     2.0100     1.4760 hc         1 LW7       0.059200
     30 H12          5.3940    -0.1090     0.6330 ha         1 LW7       0.114000
     31 H13          5.1840    -2.5520     0.3450 ha         1 LW7       0.114000
     32 H14          2.9820    -3.5480    -0.1970 ha         1 LW7       0.115000
     33 H15          1.0130    -2.1130    -0.4520 ha         1 LW7       0.116000
     34 H16         -0.5270    -0.5630     0.7970 hc         1 LW7       0.055200
     35 H17         -1.5430     1.6440    -1.0620 hc         1 LW7       0.061200
@<TRIPOS>BOND
     1     1     2 1   
     2     1    13 ar  
     3     1    17 ar  
     4     2     3 1   
     5     2    18 2   
     6     3     4 1   
     7     3    19 1   
     8     3    34 1   
     9     4     5 1   
    10     4    20 1   
    11     4    35 1   
    12     5     6 ar  
    13     5    10 ar  
    14     6     7 ar  
    15     6    21 1   
    16     7     8 ar  
    17     7    22 1   
    18     8     9 ar  
    19     8    23 1   
    20     9    10 ar  
    21     9    24 1   
    22    10    25 1   
    23    11    12 1   
    24    11    18 1   
    25    11    26 1   
    26    11    27 1   
    27    12    13 1   
    28    12    28 1   
    29    12    29 1   
    30    13    14 ar  
    31    14    15 ar  
    32    14    30 1   
    33    15    16 ar  
    34    15    31 1   
    35    16    17 ar  
    36    16    32 1   
    37    17    33 1   
@<TRIPOS>SUBSTRUCTURE
     1 LW7         1 TEMP              0 ****  ****    0 ROOT
