@<TRIPOS>MOLECULE
LW8
   30    30     1     0     0
SMALL
abcg2


@<TRIPOS>ATOM
      1 O01        -32.4790   -23.0330    53.6660 o          1 LW8      -0.657000
      2 C02        -33.0310   -22.5010    52.6800 c          1 LW8       0.706000
      3 O03        -32.6050   -21.5660    51.9670 o          1 LW8      -0.657000
      4 C04        -34.3960   -23.1400    52.2740 c3         1 LW8      -0.037700
      5 N05        -35.5330   -22.1110    52.1660 n4         1 LW8      -0.491000
      6 C06        -36.8540   -22.8240    52.1680 c3         1 LW8       0.082900
      7 C07        -35.4900   -21.2260    53.3780 c3         1 LW8       0.082900
      8 C08        -35.4450   -21.2560    50.9350 c3         1 LW8       0.082900
      9 C09        -34.2250   -23.9530    50.9820 c3         1 LW8      -0.004200
     10 C10        -33.2580   -25.0660    51.1750 cc         1 LW8      -0.079600
     11 N11        -33.5050   -26.1560    52.0020 ns         1 LW8      -0.414600
     12 C14        -32.4540   -27.0150    52.0180 cs         1 LW8       0.404400
     13 S15        -32.3150   -28.4660    52.8790 s          1 LW8      -0.660400
     14 N13        -31.5450   -26.4500    51.1880 ns         1 LW8      -0.409600
     15 C12        -32.0190   -25.2580    50.6650 cd         1 LW8      -0.124400
     16 H2         -34.7150   -23.7900    53.0850 hx         1 LW8       0.076700
     17 H3         -36.9290   -23.4140    53.0780 hx         1 LW8       0.086811
     18 H4         -37.6390   -22.0730    52.1390 hx         1 LW8       0.086811
     19 H5         -36.9250   -23.4620    51.2940 hx         1 LW8       0.086811
     20 H6         -35.5020   -21.8550    54.2640 hx         1 LW8       0.086811
     21 H7         -34.5850   -20.6290    53.3420 hx         1 LW8       0.086811
     22 H8         -36.3670   -20.5840    53.3580 hx         1 LW8       0.086811
     23 H9         -36.2200   -20.4970    51.0080 hx         1 LW8       0.086811
     24 H10        -34.4560   -20.8140    50.9040 hx         1 LW8       0.086811
     25 H11        -35.6200   -21.8760    50.0610 hx         1 LW8       0.086811
     26 H12        -33.8400   -23.3120    50.1910 hc         1 LW8       0.058200
     27 H13        -35.1800   -24.3620    50.6500 hc         1 LW8       0.058200
     28 H14        -31.4410   -24.6520    49.9910 h4         1 LW8       0.244000
     29 H15        -34.3480   -26.3130    52.5310 hn         1 LW8       0.473000
     30 H16        -30.6480   -26.8630    50.9920 hn         1 LW8       0.485000
@<TRIPOS>BOND
     1     1     2 1   
     2     2     3 1   
     3     2     4 1   
     4     4     5 1   
     5     4     9 1   
     6     4    16 1   
     7     5     6 1   
     8     5     7 1   
     9     5     8 1   
    10     6    17 1   
    11     6    18 1   
    12     6    19 1   
    13     7    20 1   
    14     7    21 1   
    15     7    22 1   
    16     8    23 1   
    17     8    24 1   
    18     8    25 1   
    19     9    10 1   
    20     9    26 1   
    21     9    27 1   
    22    10    11 1   
    23    10    15 2   
    24    11    12 1   
    25    11    29 1   
    26    12    13 2   
    27    12    14 1   
    28    14    15 1   
    29    14    30 1   
    30    15    28 1   
@<TRIPOS>SUBSTRUCTURE
     1 LW8         1 TEMP              0 ****  ****    0 ROOT
