@<TRIPOS>MOLECULE
LW8
   30    30     1     0     0
SMALL
No Charge or Current Charge


@<TRIPOS>ATOM
      1 O01        -32.5230   -22.6250    53.6620 o          1 LW8      -0.657000
      2 C02        -32.9610   -22.4690    52.5310 c          1 LW8       0.706000
      3 O03        -32.4040   -21.7910    51.6770 o          1 LW8      -0.657000
      4 C04        -34.3630   -23.0760    52.2100 c3         1 LW8      -0.037700
      5 N05        -35.5620   -22.0740    52.1880 n4         1 LW8      -0.491000
      6 C06        -36.8970   -22.8310    52.1480 c3         1 LW8       0.082900
      7 C07        -35.5360   -21.2190    53.4640 c3         1 LW8       0.082900
      8 C08        -35.4710   -21.1440    50.9690 c3         1 LW8       0.082900
      9 C09        -34.2470   -24.0250    50.9860 c3         1 LW8      -0.004200
     10 C10        -33.2280   -25.1150    51.1820 cc         1 LW8      -0.079600
     11 N11        -33.4890   -26.2180    51.9470 ns         1 LW8      -0.414600
     12 C14        -32.4550   -27.0880    52.0050 cs         1 LW8       0.404400
     13 S15        -32.3820   -28.5360    52.8200 s          1 LW8      -0.660400
     14 N13        -31.4840   -26.5050    51.2320 ns         1 LW8      -0.409600
     15 C12        -31.9530   -25.2910    50.7210 cd         1 LW8      -0.124400
     16 H2         -34.5630   -23.7190    53.0680 hx         1 LW8       0.076700
     17 H3         -36.9510   -23.5090    53.0020 hx         1 LW8       0.086811
     18 H4         -37.7180   -22.1130    52.1960 hx         1 LW8       0.086811
     19 H5         -36.9650   -23.4000    51.2190 hx         1 LW8       0.086811
     20 H6         -35.5940   -21.8750    54.3350 hx         1 LW8       0.086811
     21 H7         -34.6070   -20.6470    53.4950 hx         1 LW8       0.086811
     22 H8         -36.3880   -20.5370    53.4580 hx         1 LW8       0.086811
     23 H9         -36.3090   -20.4430    50.9870 hx         1 LW8       0.086811
     24 H10        -34.5300   -20.5930    51.0060 hx         1 LW8       0.086811
     25 H11        -35.5130   -21.7410    50.0560 hx         1 LW8       0.086811
     26 H12        -33.9900   -23.4410    50.0950 hc         1 LW8       0.058200
     27 H13        -35.2200   -24.4840    50.7780 hc         1 LW8       0.058200
     28 H14        -31.3340   -24.6660    50.0790 h4         1 LW8       0.244000
     29 H15        -34.3610   -26.4080    52.4350 hn         1 LW8       0.473000
     30 H16        -30.5730   -26.9360    51.0810 hn         1 LW8       0.485000
@<TRIPOS>BOND
     1     1     2 1   
     2     2     3 1   
     3     2     4 1   
     4     4     5 1   
     5     4     9 1   
     6     4    16 1   
     7     5     6 1   
     8     5     7 1   
     9     5     8 1   
    10     6    17 1   
    11     6    18 1   
    12     6    19 1   
    13     7    20 1   
    14     7    21 1   
    15     7    22 1   
    16     8    23 1   
    17     8    24 1   
    18     8    25 1   
    19     9    10 1   
    20     9    26 1   
    21     9    27 1   
    22    10    11 1   
    23    10    15 2   
    24    11    12 1   
    25    11    29 1   
    26    12    13 2   
    27    12    14 1   
    28    14    15 1   
    29    14    30 1   
    30    15    28 1   
@<TRIPOS>SUBSTRUCTURE
     1 LW8         1 TEMP              0 ****  ****    0 ROOT
