@<TRIPOS>MOLECULE
LW9
   29    28     1     0     0
SMALL
No Charge or Current Charge


@<TRIPOS>ATOM
      1 C1           2.5290     2.1840    -0.2540 c3         1 LW9      -0.089100
      2 C2           1.2440     1.5060     0.2730 c3         1 LW9      -0.073900
      3 C3           1.0200     0.0350    -0.1960 c3         1 LW9      -0.056700
      4 C4           2.2090    -0.8890     0.2180 c3         1 LW9      -0.073900
      5 C5           2.1340    -2.3420    -0.3010 c3         1 LW9      -0.089100
      6 C6          -0.3470    -0.5320     0.3020 c3         1 LW9      -0.073400
      7 C7          -1.6030     0.2510    -0.1570 c3         1 LW9      -0.076400
      8 C8          -2.9230    -0.4610     0.2150 c3         1 LW9      -0.075400
      9 C9          -4.1750     0.3190    -0.2320 c3         1 LW9      -0.088100
     10 H1           2.5160     3.2540    -0.0140 hc         1 LW9       0.031033
     11 H2           3.4260     1.7530     0.2040 hc         1 LW9       0.031033
     12 H3           2.6050     2.0800    -1.3430 hc         1 LW9       0.031033
     13 H4           1.2440     1.5460     1.3700 hc         1 LW9       0.037700
     14 H5           0.4050     2.1260    -0.0610 hc         1 LW9       0.037700
     15 H6           0.9860     0.0460    -1.2930 hc         1 LW9       0.045700
     16 H7           3.1450    -0.4680    -0.1650 hc         1 LW9       0.037700
     17 H8           2.2980    -0.9040     1.3110 hc         1 LW9       0.037700
     18 H9           1.3400    -2.9060     0.2010 hc         1 LW9       0.031033
     19 H10          1.9510    -2.3610    -1.3820 hc         1 LW9       0.031033
     20 H11          3.0810    -2.8600    -0.1070 hc         1 LW9       0.031033
     21 H12         -0.4610    -1.5600    -0.0590 hc         1 LW9       0.038200
     22 H13         -0.3390    -0.5850     1.3980 hc         1 LW9       0.038200
     23 H14         -1.6100     1.2460     0.3020 hc         1 LW9       0.037200
     24 H15         -1.5640     0.3920    -1.2440 hc         1 LW9       0.037200
     25 H16         -2.9430    -1.4570    -0.2440 hc         1 LW9       0.035700
     26 H17         -2.9640    -0.6070     1.3010 hc         1 LW9       0.035700
     27 H18         -4.2050     1.3080     0.2390 hc         1 LW9       0.031367
     28 H19         -4.1810     0.4520    -1.3210 hc         1 LW9       0.031367
     29 H20         -5.0850    -0.2240     0.0520 hc         1 LW9       0.031367
@<TRIPOS>BOND
     1     1     2 1   
     2     1    10 1   
     3     1    11 1   
     4     1    12 1   
     5     2     3 1   
     6     2    13 1   
     7     2    14 1   
     8     3     4 1   
     9     3     6 1   
    10     3    15 1   
    11     4     5 1   
    12     4    16 1   
    13     4    17 1   
    14     5    18 1   
    15     5    19 1   
    16     5    20 1   
    17     6     7 1   
    18     6    21 1   
    19     6    22 1   
    20     7     8 1   
    21     7    23 1   
    22     7    24 1   
    23     8     9 1   
    24     8    25 1   
    25     8    26 1   
    26     9    27 1   
    27     9    28 1   
    28     9    29 1   
@<TRIPOS>SUBSTRUCTURE
     1 LW9         1 TEMP              0 ****  ****    0 ROOT
