@<TRIPOS>MOLECULE
LW9
   29    28     1     0     0
SMALL
abcg2


@<TRIPOS>ATOM
      1 C1           2.4120     2.1640    -0.3270 c3         1 LW9      -0.089100
      2 C2           1.2980     1.4450     0.4230 c3         1 LW9      -0.073900
      3 C3           1.0040     0.0290    -0.0850 c3         1 LW9      -0.056700
      4 C4           2.1340    -0.9340     0.2950 c3         1 LW9      -0.073900
      5 C5           2.1320    -2.2440    -0.4830 c3         1 LW9      -0.089100
      6 C6          -0.3460    -0.4780     0.4320 c3         1 LW9      -0.073400
      7 C7          -1.5620     0.1790    -0.2110 c3         1 LW9      -0.076400
      8 C8          -2.8820    -0.3720     0.3150 c3         1 LW9      -0.075400
      9 C9          -4.0970     0.2720    -0.3390 c3         1 LW9      -0.088100
     10 H1           2.5690     3.1670     0.0720 hc         1 LW9       0.031033
     11 H2           3.3660     1.6380    -0.2600 hc         1 LW9       0.031033
     12 H3           2.1670     2.2670    -1.3860 hc         1 LW9       0.031033
     13 H4           1.5440     1.3900     1.4900 hc         1 LW9       0.037700
     14 H5           0.3940     2.0550     0.3570 hc         1 LW9       0.037700
     15 H6           0.9500     0.0680    -1.1830 hc         1 LW9       0.045700
     16 H7           3.1000    -0.4470     0.1390 hc         1 LW9       0.037700
     17 H8           2.0740    -1.1410     1.3700 hc         1 LW9       0.037700
     18 H9           1.2160    -2.8170    -0.3320 hc         1 LW9       0.031033
     19 H10          2.2330    -2.0620    -1.5550 hc         1 LW9       0.031033
     20 H11          2.9630    -2.8820    -0.1780 hc         1 LW9       0.031033
     21 H12         -0.4200    -1.5580     0.2680 hc         1 LW9       0.038200
     22 H13         -0.3850    -0.3400     1.5200 hc         1 LW9       0.038200
     23 H14         -1.5430     1.2620    -0.0520 hc         1 LW9       0.037200
     24 H15         -1.5150     0.0340    -1.2960 hc         1 LW9       0.037200
     25 H16         -2.9120    -1.4540     0.1560 hc         1 LW9       0.035700
     26 H17         -2.9280    -0.2250     1.3990 hc         1 LW9       0.035700
     27 H18         -4.1110     1.3510    -0.1690 hc         1 LW9       0.031367
     28 H19         -4.0950     0.1120    -1.4190 hc         1 LW9       0.031367
     29 H20         -5.0290    -0.1360     0.0530 hc         1 LW9       0.031367
@<TRIPOS>BOND
     1     1     2 1   
     2     1    10 1   
     3     1    11 1   
     4     1    12 1   
     5     2     3 1   
     6     2    13 1   
     7     2    14 1   
     8     3     4 1   
     9     3     6 1   
    10     3    15 1   
    11     4     5 1   
    12     4    16 1   
    13     4    17 1   
    14     5    18 1   
    15     5    19 1   
    16     5    20 1   
    17     6     7 1   
    18     6    21 1   
    19     6    22 1   
    20     7     8 1   
    21     7    23 1   
    22     7    24 1   
    23     8     9 1   
    24     8    25 1   
    25     8    26 1   
    26     9    27 1   
    27     9    28 1   
    28     9    29 1   
@<TRIPOS>SUBSTRUCTURE
     1 LW9         1 TEMP              0 ****  ****    0 ROOT
