@<TRIPOS>MOLECULE
LWA
   31    32     1     0     0
SMALL
No Charge or Current Charge


@<TRIPOS>ATOM
      1 N1           1.0000     0.6080     0.5520 ns         1 LWA      -0.151000
      2 C4          -2.2310    -1.0870    -0.3920 ca         1 LWA      -0.040500
      3 C5          -3.1570    -0.0510    -0.1470 ca         1 LWA      -0.184600
      4 C6          -4.6290    -0.2910    -0.3970 c          1 LWA       0.621700
      5 C7           2.1270    -0.2070     0.5290 c          1 LWA       0.582100
      6 C8           3.3720     0.6840     0.8860 c5         1 LWA       0.090300
      7 C10          4.6500     0.3500    -1.1170 c5         1 LWA      -0.113400
      8 N           -5.4950     0.7160    -0.1550 nt         1 LWA      -0.605000
      9 C           -2.6690     1.1890     0.3270 ca         1 LWA      -0.040500
     10 O           -5.0630    -1.3560    -0.8080 o          1 LWA      -0.608100
     11 C1          -1.2940     1.3760     0.5480 ca         1 LWA      -0.166500
     12 C11          5.1900    -0.5550     0.0320 c5         1 LWA       0.155600
     13 C2          -0.3740     0.3400     0.3090 ca         1 LWA       0.006000
     14 C3          -0.8560    -0.8950    -0.1690 ca         1 LWA      -0.166500
     15 C9           3.8810     1.4640    -0.3560 c5         1 LWA      -0.109400
     16 O1           2.1160    -1.4200     0.3340 o          1 LWA      -0.551100
     17 O2           4.5390    -0.1010     1.2440 os         1 LWA      -0.432000
     18 H1           1.1910     1.5770     0.7710 hn         1 LWA       0.148000
     19 H2          -2.5730    -2.0520    -0.7620 ha         1 LWA       0.123500
     20 H3           3.1050     1.3480     1.7190 h1         1 LWA       0.075700
     21 H4           5.4560     0.7520    -1.7430 hc         1 LWA       0.063700
     22 H5           3.9850    -0.2190    -1.7780 hc         1 LWA       0.063700
     23 H6          -5.1610     1.6040     0.1840 hn         1 LWA       0.312000
     24 H7          -6.4790     0.5670    -0.3190 hn         1 LWA       0.312000
     25 H8          -3.3420     2.0190     0.5290 ha         1 LWA       0.123500
     26 H9          -0.9430     2.3390     0.9130 ha         1 LWA       0.131000
     27 H10          4.9510    -1.6140    -0.1390 h1         1 LWA       0.052700
     28 H11          6.2770    -0.4600     0.1570 h1         1 LWA       0.052700
     29 H12         -0.1840    -1.7200    -0.3820 ha         1 LWA       0.131000
     30 H13          3.0760     1.9110    -0.9520 hc         1 LWA       0.061200
     31 H14          4.5530     2.2760    -0.0540 hc         1 LWA       0.061200
@<TRIPOS>BOND
     1     1     5 1   
     2     1    13 1   
     3     1    18 1   
     4     2     3 ar  
     5     2    14 ar  
     6     2    19 1   
     7     3     4 1   
     8     3     9 ar  
     9     4     8 1   
    10     4    10 2   
    11     5     6 1   
    12     5    16 2   
    13     6    15 1   
    14     6    17 1   
    15     6    20 1   
    16     7    12 1   
    17     7    15 1   
    18     7    21 1   
    19     7    22 1   
    20     8    23 1   
    21     8    24 1   
    22     9    11 ar  
    23     9    25 1   
    24    11    13 ar  
    25    11    26 1   
    26    12    17 1   
    27    12    27 1   
    28    12    28 1   
    29    13    14 ar  
    30    14    29 1   
    31    15    30 1   
    32    15    31 1   
@<TRIPOS>SUBSTRUCTURE
     1 LWA         1 TEMP              0 ****  ****    0 ROOT
