@<TRIPOS>MOLECULE
LWA
   31    32     1     0     0
SMALL
bcc


@<TRIPOS>ATOM
      1 N1           0.9440     0.7080     0.6230 ns         1 LWA      -0.477100
      2 C4          -2.1830    -0.9910    -0.4230 ca         1 LWA      -0.058500
      3 C5          -3.1170     0.0170    -0.2040 ca         1 LWA      -0.184600
      4 C6          -4.5490    -0.2590    -0.5240 c          1 LWA       0.688700
      5 C7           2.0410    -0.0920     0.5480 c          1 LWA       0.649100
      6 C8           3.3460     0.6510     0.8300 c5         1 LWA       0.067100
      7 C10          4.6230     0.2130    -1.1130 c5         1 LWA      -0.113400
      8 N           -5.4560     0.5950    -0.0240 nt         1 LWA      -0.672000
      9 C           -2.6570     1.2410     0.2800 ca         1 LWA      -0.058500
     10 O           -4.8650    -1.2190    -1.2160 o          1 LWA      -0.608100
     11 C1          -1.3170     1.4380     0.5430 ca         1 LWA      -0.184500
     12 C11          5.1940    -0.5430     0.0820 c5         1 LWA       0.132400
     13 C2          -0.3860     0.4160     0.3340 ca         1 LWA       0.098600
     14 C3          -0.8370    -0.8130    -0.1550 ca         1 LWA      -0.184500
     15 C9           3.8490     1.3430    -0.4420 c5         1 LWA      -0.109400
     16 O1           2.0180    -1.2690     0.2520 o          1 LWA      -0.551100
     17 O2           4.3470    -0.2560     1.1950 os         1 LWA      -0.385600
     18 H1           1.1090     1.6550     0.9340 hn         1 LWA       0.314500
     19 H2          -2.5120    -1.9460    -0.8080 ha         1 LWA       0.141500
     20 H3           3.1920     1.3670     1.6450 h1         1 LWA       0.075700
     21 H4           5.4050     0.5770    -1.7780 hc         1 LWA       0.063700
     22 H5           3.9560    -0.4210    -1.6980 hc         1 LWA       0.063700
     23 H6          -5.2280     1.3050     0.6490 hn         1 LWA       0.312000
     24 H7          -6.4340     0.4310    -0.1940 hn         1 LWA       0.312000
     25 H8          -3.3300     2.0740     0.4410 ha         1 LWA       0.141500
     26 H9          -0.9830     2.4010     0.9110 ha         1 LWA       0.149000
     27 H10          5.2280    -1.6210    -0.0840 h1         1 LWA       0.052700
     28 H11          6.2080    -0.2050     0.3160 h1         1 LWA       0.052700
     29 H12         -0.1540    -1.6260    -0.3310 ha         1 LWA       0.149000
     30 H13          3.0510     1.7550    -1.0590 hc         1 LWA       0.061200
     31 H14          4.5140     2.1640    -0.1680 hc         1 LWA       0.061200
@<TRIPOS>BOND
     1     1     5 1   
     2     1    13 1   
     3     1    18 1   
     4     2     3 ar  
     5     2    14 ar  
     6     2    19 1   
     7     3     4 1   
     8     3     9 ar  
     9     4     8 1   
    10     4    10 2   
    11     5     6 1   
    12     5    16 2   
    13     6    15 1   
    14     6    17 1   
    15     6    20 1   
    16     7    12 1   
    17     7    15 1   
    18     7    21 1   
    19     7    22 1   
    20     8    23 1   
    21     8    24 1   
    22     9    11 ar  
    23     9    25 1   
    24    11    13 ar  
    25    11    26 1   
    26    12    17 1   
    27    12    27 1   
    28    12    28 1   
    29    13    14 ar  
    30    14    29 1   
    31    15    30 1   
    32    15    31 1   
@<TRIPOS>SUBSTRUCTURE
     1 LWA         1 TEMP              0 ****  ****    0 ROOT
