@<TRIPOS>MOLECULE
LWB
   71    76     1     0     0
SMALL
abcg2


@<TRIPOS>ATOM
      1 C15          0.3250    -2.7440    -0.0460 ca         1 LWB       0.235000
      2 C20          4.6270    -1.7310    -1.2640 cc         1 LWB       0.296300
      3 C21          4.1850    -2.3690    -2.5320 c3         1 LWB      -0.134400
      4 C28          4.5480    -0.1980     2.0580 c3         1 LWB      -0.137400
      5 C01         -7.2910    -1.1750     1.7920 c3         1 LWB       0.142900
      6 O05         -5.9540    -1.5930     1.6580 os         1 LWB      -0.442000
      7 C06         -5.4850    -1.4460     0.3440 c3         1 LWB       0.147300
      8 C09         -4.0510    -1.8570     0.2840 cc         1 LWB       0.396800
      9 N10         -3.7120    -3.0940     0.0490 nd         1 LWB      -0.540100
     10 C11         -2.3510    -3.0980     0.0160 ca         1 LWB       0.009400
     11 C12         -1.4670    -4.1790    -0.1600 ca         1 LWB       0.410900
     12 N14         -0.1790    -4.0060    -0.1650 nb         1 LWB      -0.669000
     13 C16          1.7260    -2.6070    -0.1140 ca         1 LWB      -0.037000
     14 C18          2.3520    -1.3880    -0.0770 ca         1 LWB      -0.022000
     15 C19          3.8100    -1.2910    -0.1850 cc         1 LWB      -0.176000
     16 N25          5.8830    -1.4920    -1.0240 nd         1 LWB      -0.369300
     17 O26          5.9320    -0.9040     0.2080 os         1 LWB      -0.074700
     18 C27          4.7010    -0.7830     0.7070 cd         1 LWB       0.215300
     19 C32          1.5510    -0.2180     0.0060 ca         1 LWB       0.162100
     20 O33          2.2150     0.9440    -0.0550 os         1 LWB      -0.339100
     21 C34          1.4830     2.1610    -0.0540 c3         1 LWB       0.164600
     22 C37          2.4560     3.3050    -0.2060 c5         1 LWB      -0.072700
     23 C39          1.7330     4.6710    -0.1820 c5         1 LWB      -0.077400
     24 C42          2.5150     5.5090     0.8390 c5         1 LWB       0.149800
     25 N45          3.7990     4.8290     0.9280 n7         1 LWB      -0.857400
     26 C47          3.4740     3.4140     0.9320 c5         1 LWB       0.156800
     27 C50          0.1830    -0.3150     0.1170 ca         1 LWB      -0.211000
     28 C52         -0.4590    -1.5710     0.1180 ca         1 LWB      -0.003000
     29 C53         -1.8550    -1.8150     0.2070 ca         1 LWB      -0.068200
     30 N54         -2.9620    -1.0290     0.4200 na         1 LWB      -0.144600
     31 C55         -2.8980     0.3760     0.8280 c3         1 LWB       0.134600
     32 C57         -3.9970     0.8140     1.7940 c3         1 LWB      -0.098100
     33 C61         -2.7860     1.3100    -0.3580 ca         1 LWB      -0.107300
     34 C62         -2.2230     2.5690    -0.1560 ca         1 LWB      -0.102500
     35 C64         -2.1060     3.4690    -1.2040 ca         1 LWB      -0.107000
     36 C66         -2.5540     3.1220    -2.4720 ca         1 LWB      -0.101000
     37 C68         -3.1150     1.8710    -2.6800 ca         1 LWB      -0.107000
     38 C70         -3.2290     0.9680    -1.6290 ca         1 LWB      -0.102500
     39 H1           3.3830    -1.7910    -2.9900 hc         1 LWB       0.057700
     40 H2           5.0080    -2.4440    -3.2400 hc         1 LWB       0.057700
     41 H3           3.7990    -3.3730    -2.3520 hc         1 LWB       0.057700
     42 H4           5.4960     0.1730     2.4430 hc         1 LWB       0.063033
     43 H5           3.8370     0.6270     2.0430 hc         1 LWB       0.063033
     44 H6           4.1660    -0.9450     2.7550 hc         1 LWB       0.063033
     45 H7          -7.4150    -0.1170     1.5360 h1         1 LWB       0.033033
     46 H8          -7.9690    -1.7580     1.1570 h1         1 LWB       0.033033
     47 H9          -7.5820    -1.3170     2.8310 h1         1 LWB       0.033033
     48 H10         -6.0310    -2.1010    -0.3450 h1         1 LWB       0.046200
     49 H11         -5.6190    -0.4220    -0.0270 h1         1 LWB       0.046200
     50 H12         -1.8500    -5.1870    -0.2830 h4         1 LWB       0.036100
     51 H13          2.3150    -3.5120    -0.2050 ha         1 LWB       0.138000
     52 H14          0.7560     2.1680    -0.8760 h1         1 LWB       0.037200
     53 H15          0.9220     2.2640     0.8840 h1         1 LWB       0.037200
     54 H16          2.9880     3.1930    -1.1540 hc         1 LWB       0.080700
     55 H17          1.7390     5.1280    -1.1720 hc         1 LWB       0.045700
     56 H18          0.6870     4.5750     0.1160 hc         1 LWB       0.045700
     57 H19          2.6400     6.5470     0.5250 h1         1 LWB       0.035200
     58 H20          1.9750     5.5200     1.7970 h1         1 LWB       0.035200
     59 H21          4.3090     5.1000     1.7580 hn         1 LWB       0.415000
     60 H23          3.0110     3.0830     1.8780 h1         1 LWB       0.040200
     61 H24          4.3620     2.8020     0.7670 h1         1 LWB       0.040200
     62 H25         -0.4080     0.5860     0.1400 ha         1 LWB       0.122000
     63 H26         -1.9780     0.4460     1.4110 h1         1 LWB       0.072700
     64 H27         -3.6900     1.7650     2.2280 hc         1 LWB       0.054033
     65 H28         -4.9570     0.9810     1.3120 hc         1 LWB       0.054033
     66 H29         -4.1160     0.1020     2.6070 hc         1 LWB       0.054033
     67 H30         -1.8610     2.8460     0.8280 ha         1 LWB       0.116500
     68 H31         -1.6590     4.4400    -1.0300 ha         1 LWB       0.117000
     69 H32         -2.4610     3.8200    -3.2930 ha         1 LWB       0.118000
     70 H33         -3.4620     1.5870    -3.6650 ha         1 LWB       0.117000
     71 H34         -3.6510    -0.0100    -1.8250 ha         1 LWB       0.116500
@<TRIPOS>BOND
     1     1    12 ar  
     2     1    13 ar  
     3     1    28 ar  
     4     2     3 1   
     5     2    15 1   
     6     2    16 2   
     7     3    39 1   
     8     3    40 1   
     9     3    41 1   
    10     4    18 1   
    11     4    42 1   
    12     4    43 1   
    13     4    44 1   
    14     5     6 1   
    15     5    45 1   
    16     5    46 1   
    17     5    47 1   
    18     6     7 1   
    19     7     8 1   
    20     7    48 1   
    21     7    49 1   
    22     8     9 2   
    23     8    30 1   
    24     9    10 1   
    25    10    11 ar  
    26    10    29 ar  
    27    11    12 ar  
    28    11    50 1   
    29    13    14 ar  
    30    13    51 1   
    31    14    15 1   
    32    14    19 ar  
    33    15    18 2   
    34    16    17 1   
    35    17    18 1   
    36    19    20 1   
    37    19    27 ar  
    38    20    21 1   
    39    21    22 1   
    40    21    52 1   
    41    21    53 1   
    42    22    23 1   
    43    22    26 1   
    44    22    54 1   
    45    23    24 1   
    46    23    55 1   
    47    23    56 1   
    48    24    25 1   
    49    24    57 1   
    50    24    58 1   
    51    25    26 1   
    52    25    59 1   
    53    26    60 1   
    54    26    61 1   
    55    27    28 ar  
    56    27    62 1   
    57    28    29 ar  
    58    29    30 1   
    59    30    31 1   
    60    31    32 1   
    61    31    33 1   
    62    31    63 1   
    63    32    64 1   
    64    32    65 1   
    65    32    66 1   
    66    33    34 ar  
    67    33    38 ar  
    68    34    35 ar  
    69    34    67 1   
    70    35    36 ar  
    71    35    68 1   
    72    36    37 ar  
    73    36    69 1   
    74    37    38 ar  
    75    37    70 1   
    76    38    71 1   
@<TRIPOS>SUBSTRUCTURE
     1 LWB         1 TEMP              0 ****  ****    0 ROOT
