@<TRIPOS>MOLECULE
LWB
   71    76     1     0     0
SMALL
No Charge or Current Charge


@<TRIPOS>ATOM
      1 C15          0.4150    -2.8730    -0.2700 ca         1 LWB       0.235000
      2 C20          4.8540    -2.0750    -0.9950 cc         1 LWB       0.296300
      3 C21          4.5200    -3.0070    -2.1260 c3         1 LWB      -0.134400
      4 C28          4.2230     0.0420     1.9390 c3         1 LWB      -0.137400
      5 C01         -7.5080    -1.2460     1.2940 c3         1 LWB       0.142900
      6 O05         -6.1490    -1.7060     1.2180 os         1 LWB      -0.442000
      7 C06         -5.4690    -1.3700    -0.0130 c3         1 LWB       0.147300
      8 C09         -4.0420    -1.8870     0.0150 cc         1 LWB       0.396800
      9 N10         -3.7150    -3.1690    -0.2460 nd         1 LWB      -0.540100
     10 C11         -2.3200    -3.1810    -0.2080 ca         1 LWB       0.009400
     11 C12         -1.4540    -4.2700    -0.4360 ca         1 LWB       0.410900
     12 N14         -0.1040    -4.1200    -0.4430 nb         1 LWB      -0.669000
     13 C16          1.8100    -2.7070    -0.3330 ca         1 LWB      -0.037000
     14 C18          2.4220    -1.4430    -0.2070 ca         1 LWB      -0.022000
     15 C19          3.8900    -1.3380    -0.2680 cc         1 LWB      -0.176000
     16 N25          6.0990    -1.8420    -0.6180 nd         1 LWB      -0.369300
     17 O26          5.9570    -0.9260     0.4800 os         1 LWB      -0.074700
     18 C27          4.6220    -0.6900     0.6840 cd         1 LWB       0.215300
     19 C32          1.6000    -0.3000    -0.0670 ca         1 LWB       0.162100
     20 O33          2.1790     0.9580    -0.1110 os         1 LWB      -0.339100
     21 C34          1.3910     2.1640    -0.1640 c3         1 LWB       0.164600
     22 C37          2.3350     3.3630    -0.3850 c5         1 LWB      -0.072700
     23 C39          1.6100     4.7260    -0.5150 c5         1 LWB      -0.077400
     24 C42          2.8190     5.6670    -0.3480 c5         1 LWB       0.149800
     25 N45          3.4730     5.1330     0.8660 n7         1 LWB      -0.857400
     26 C47          3.3370     3.6500     0.7740 c5         1 LWB       0.156800
     27 C50          0.2010    -0.4530     0.0180 ca         1 LWB      -0.211000
     28 C52         -0.4020    -1.7260    -0.0460 ca         1 LWB      -0.003000
     29 C53         -1.8040    -1.9390     0.0420 ca         1 LWB      -0.068200
     30 N54         -2.8910    -1.1180     0.2840 na         1 LWB      -0.144600
     31 C55         -2.7970     0.1580     1.0500 c3         1 LWB       0.134600
     32 C57         -3.8280     0.3000     2.1940 c3         1 LWB      -0.098100
     33 C61         -2.7540     1.4240     0.1800 ca         1 LWB      -0.107300
     34 C62         -2.2550     2.6200     0.7390 ca         1 LWB      -0.102500
     35 C64         -2.1610     3.7890    -0.0350 ca         1 LWB      -0.107000
     36 C66         -2.5640     3.7760    -1.3790 ca         1 LWB      -0.101000
     37 C68         -3.0610     2.5930    -1.9470 ca         1 LWB      -0.107000
     38 C70         -3.1560     1.4220    -1.1750 ca         1 LWB      -0.102500
     39 H1           3.5890    -2.7110    -2.6230 hc         1 LWB       0.057700
     40 H2           5.3140    -3.0020    -2.8830 hc         1 LWB       0.057700
     41 H3           4.4090    -4.0350    -1.7640 hc         1 LWB       0.057700
     42 H4           4.9020    -0.2030     2.7640 hc         1 LWB       0.063033
     43 H5           4.2630     1.1250     1.7880 hc         1 LWB       0.063033
     44 H6           3.2100    -0.2240     2.2580 hc         1 LWB       0.063033
     45 H7          -7.5540    -0.1520     1.2150 h1         1 LWB       0.033033
     46 H8          -8.1130    -1.6790     0.4870 h1         1 LWB       0.033033
     47 H9          -7.9560    -1.5380     2.2520 h1         1 LWB       0.033033
     48 H10         -5.9850    -1.8230    -0.8690 h1         1 LWB       0.046200
     49 H11         -5.4610    -0.2850    -0.1750 h1         1 LWB       0.046200
     50 H12         -1.8420    -5.2700    -0.6260 h4         1 LWB       0.036100
     51 H13          2.4240    -3.5930    -0.4600 ha         1 LWB       0.138000
     52 H14          0.6800     2.1230    -1.0000 h1         1 LWB       0.037200
     53 H15          0.8280     2.3040     0.7680 h1         1 LWB       0.037200
     54 H16          2.8900     3.1530    -1.3080 hc         1 LWB       0.080700
     55 H17          1.1090     4.8500    -1.4820 hc         1 LWB       0.045700
     56 H18          0.8630     4.8780     0.2730 hc         1 LWB       0.045700
     57 H19          3.4940     5.6020    -1.2140 h1         1 LWB       0.035200
     58 H20          2.5220     6.7180    -0.2240 h1         1 LWB       0.035200
     59 H21          2.9220     5.4460     1.6760 hn         1 LWB       0.415000
     60 H23          2.9740     3.2480     1.7310 h1         1 LWB       0.040200
     61 H24          4.3080     3.1800     0.5660 h1         1 LWB       0.040200
     62 H25         -0.4160     0.4260     0.0820 ha         1 LWB       0.122000
     63 H26         -1.8430     0.1060     1.5870 h1         1 LWB       0.072700
     64 H27         -3.5090     1.0760     2.8990 hc         1 LWB       0.054033
     65 H28         -4.8130     0.5920     1.8160 hc         1 LWB       0.054033
     66 H29         -3.9230    -0.6390     2.7540 hc         1 LWB       0.054033
     67 H30         -1.9280     2.6440     1.7770 ha         1 LWB       0.116500
     68 H31         -1.7740     4.7040     0.4080 ha         1 LWB       0.117000
     69 H32         -2.4890     4.6810    -1.9790 ha         1 LWB       0.118000
     70 H33         -3.3710     2.5820    -2.9900 ha         1 LWB       0.117000
     71 H34         -3.5360     0.5200    -1.6460 ha         1 LWB       0.116500
@<TRIPOS>BOND
     1     1    12 ar  
     2     1    13 ar  
     3     1    28 ar  
     4     2     3 1   
     5     2    15 1   
     6     2    16 2   
     7     3    39 1   
     8     3    40 1   
     9     3    41 1   
    10     4    18 1   
    11     4    42 1   
    12     4    43 1   
    13     4    44 1   
    14     5     6 1   
    15     5    45 1   
    16     5    46 1   
    17     5    47 1   
    18     6     7 1   
    19     7     8 1   
    20     7    48 1   
    21     7    49 1   
    22     8     9 2   
    23     8    30 1   
    24     9    10 1   
    25    10    11 ar  
    26    10    29 ar  
    27    11    12 ar  
    28    11    50 1   
    29    13    14 ar  
    30    13    51 1   
    31    14    15 1   
    32    14    19 ar  
    33    15    18 2   
    34    16    17 1   
    35    17    18 1   
    36    19    20 1   
    37    19    27 ar  
    38    20    21 1   
    39    21    22 1   
    40    21    52 1   
    41    21    53 1   
    42    22    23 1   
    43    22    26 1   
    44    22    54 1   
    45    23    24 1   
    46    23    55 1   
    47    23    56 1   
    48    24    25 1   
    49    24    57 1   
    50    24    58 1   
    51    25    26 1   
    52    25    59 1   
    53    26    60 1   
    54    26    61 1   
    55    27    28 ar  
    56    27    62 1   
    57    28    29 ar  
    58    29    30 1   
    59    30    31 1   
    60    31    32 1   
    61    31    33 1   
    62    31    63 1   
    63    32    64 1   
    64    32    65 1   
    65    32    66 1   
    66    33    34 ar  
    67    33    38 ar  
    68    34    35 ar  
    69    34    67 1   
    70    35    36 ar  
    71    35    68 1   
    72    36    37 ar  
    73    36    69 1   
    74    37    38 ar  
    75    37    70 1   
    76    38    71 1   
@<TRIPOS>SUBSTRUCTURE
     1 LWB         1 TEMP              0 ****  ****    0 ROOT
