@<TRIPOS>MOLECULE
LWD
   31    33     1     0     0
SMALL
No Charge or Current Charge


@<TRIPOS>ATOM
      1 N1         -10.8210   -20.2380     4.5920 nb         1 LWD      -0.652000
      2 C4         -16.2800   -19.6610    -1.7890 ca         1 LWD      -0.070500
      3 C5         -17.3120   -19.3720    -2.6990 ca         1 LWD      -0.119000
      4 C6         -14.1710   -20.9860    -1.1400 c          1 LWD       0.619700
      5 C7         -13.2800   -20.3040     1.1800 ca         1 LWD      -0.017000
      6 C8         -12.1610   -21.1590     1.2880 ca         1 LWD      -0.101000
      7 C10        -11.6230   -20.2480     3.4990 ca         1 LWD       0.251000
      8 C13        -13.0430   -18.5040     4.4370 ca         1 LWD      -0.068000
      9 C15        -11.1110   -19.3820     5.6000 ca         1 LWD       0.344900
     10 N          -14.1520   -20.2760     0.0550 ns         1 LWD      -0.151000
     11 C          -17.3890   -20.0520    -3.9240 ca         1 LWD      -0.085000
     12 O          -13.3380   -21.8390    -1.4280 o          1 LWD      -0.571100
     13 C1         -16.4300   -21.0260    -4.2400 ca         1 LWD      -0.119000
     14 C11        -12.7470   -19.3910     3.3860 ca         1 LWD      -0.057000
     15 C12        -13.5630   -19.4230     2.2390 ca         1 LWD      -0.155000
     16 C14        -12.2060   -18.5040     5.5630 ca         1 LWD      -0.161000
     17 C2         -15.3960   -21.3200    -3.3350 ca         1 LWD      -0.070500
     18 C3         -15.3030   -20.6430    -2.0950 ca         1 LWD      -0.158600
     19 C9         -11.3480   -21.1250     2.4350 ca         1 LWD      -0.065000
     20 H2         -18.0550   -18.6160    -2.4530 ha         1 LWD       0.119000
     21 H3         -11.9000   -21.8570     0.4990 ha         1 LWD       0.141000
     22 H4         -13.8980   -17.8340     4.3830 ha         1 LWD       0.117000
     23 H5         -10.4450   -19.4020     6.4620 h4         1 LWD       0.018100
     24 H6         -14.9030   -19.6060     0.1470 hn         1 LWD       0.154000
     25 H7         -18.1890   -19.8260    -4.6250 ha         1 LWD       0.117000
     26 H8         -16.4870   -21.5560    -5.1890 ha         1 LWD       0.119000
     27 H9         -14.4210   -18.7580     2.1710 ha         1 LWD       0.113000
     28 H10        -12.3970   -17.8360     6.3980 ha         1 LWD       0.123000
     29 H11        -14.6640   -22.0800    -3.6040 ha         1 LWD       0.125000
     30 H12        -10.4900   -21.7900     2.5020 ha         1 LWD       0.135000
     31 H1         -16.2580   -19.1100    -0.8520 ha         1 LWD       0.125000
@<TRIPOS>BOND
     1     1     7 ar  
     2     1     9 ar  
     3     2     3 ar  
     4     2    18 ar  
     5     2    31 1   
     6     3    11 ar  
     7     3    20 1   
     8     4    10 1   
     9     4    12 2   
    10     4    18 1   
    11     5     6 ar  
    12     5    10 1   
    13     5    15 ar  
    14     6    19 ar  
    15     6    21 1   
    16     7    14 ar  
    17     7    19 ar  
    18     8    14 ar  
    19     8    16 ar  
    20     8    22 1   
    21     9    16 ar  
    22     9    23 1   
    23    10    24 1   
    24    11    13 ar  
    25    11    25 1   
    26    13    17 ar  
    27    13    26 1   
    28    14    15 ar  
    29    15    27 1   
    30    16    28 1   
    31    17    18 ar  
    32    17    29 1   
    33    19    30 1   
@<TRIPOS>SUBSTRUCTURE
     1 LWD         1 TEMP              0 ****  ****    0 ROOT
