@<TRIPOS>MOLECULE
LWD
   31    33     1     0     0
SMALL
abcg2


@<TRIPOS>ATOM
      1 N1         -11.0360   -20.4600     4.6150 nb         1 LWD      -0.652000
      2 C4         -16.6340   -20.4030    -1.6430 ca         1 LWD      -0.070500
      3 C5         -17.6130   -20.2280    -2.6110 ca         1 LWD      -0.119000
      4 C6         -14.2100   -20.7960    -1.0220 c          1 LWD       0.619700
      5 C7         -13.5490   -20.2980     1.2960 ca         1 LWD      -0.017000
      6 C8         -12.7830   -21.4560     1.5810 ca         1 LWD      -0.101000
      7 C10        -11.8630   -20.3810     3.5460 ca         1 LWD       0.251000
      8 C13        -12.5410   -18.1430     4.1630 ca         1 LWD      -0.068000
      9 C15        -10.9650   -19.4310     5.4160 ca         1 LWD       0.344900
     10 N          -14.4240   -20.2450     0.2040 ns         1 LWD      -0.151000
     11 C          -17.2680   -20.2180    -3.9550 ca         1 LWD      -0.085000
     12 O          -13.2030   -21.4170    -1.3090 o          1 LWD      -0.571100
     13 C1         -15.9430   -20.3950    -4.3320 ca         1 LWD      -0.119000
     14 C11        -12.6470   -19.2340     3.2720 ca         1 LWD      -0.057000
     15 C12        -13.4800   -19.2130     2.1360 ca         1 LWD      -0.155000
     16 C14        -11.7000   -18.2390     5.2340 ca         1 LWD      -0.161000
     17 C2         -14.9660   -20.5840    -3.3680 ca         1 LWD      -0.070500
     18 C3         -15.3020   -20.5750    -2.0150 ca         1 LWD      -0.158600
     19 C9         -11.9620   -21.4870     2.6720 ca         1 LWD      -0.065000
     20 H2         -18.6450   -20.1060    -2.3130 ha         1 LWD       0.119000
     21 H3         -12.8560   -22.3280     0.9500 ha         1 LWD       0.141000
     22 H4         -13.1240   -17.2470     3.9890 ha         1 LWD       0.117000
     23 H5         -10.2960   -19.5180     6.2660 h4         1 LWD       0.018100
     24 H6         -15.1710   -19.5720     0.2830 hn         1 LWD       0.154000
     25 H7         -18.0320   -20.0770    -4.7090 ha         1 LWD       0.117000
     26 H8         -15.6710   -20.3900    -5.3800 ha         1 LWD       0.119000
     27 H9         -14.0680   -18.3260     1.9290 ha         1 LWD       0.113000
     28 H10        -11.5870   -17.4270     5.9390 ha         1 LWD       0.123000
     29 H11        -13.9360   -20.7290    -3.6660 ha         1 LWD       0.125000
     30 H12        -11.3790   -22.3720     2.8920 ha         1 LWD       0.135000
     31 H1         -16.9300   -20.4300    -0.6010 ha         1 LWD       0.125000
@<TRIPOS>BOND
     1     1     7 ar  
     2     1     9 ar  
     3     2     3 ar  
     4     2    18 ar  
     5     2    31 1   
     6     3    11 ar  
     7     3    20 1   
     8     4    10 1   
     9     4    12 2   
    10     4    18 1   
    11     5     6 ar  
    12     5    10 1   
    13     5    15 ar  
    14     6    19 ar  
    15     6    21 1   
    16     7    14 ar  
    17     7    19 ar  
    18     8    14 ar  
    19     8    16 ar  
    20     8    22 1   
    21     9    16 ar  
    22     9    23 1   
    23    10    24 1   
    24    11    13 ar  
    25    11    25 1   
    26    13    17 ar  
    27    13    26 1   
    28    14    15 ar  
    29    15    27 1   
    30    16    28 1   
    31    17    18 ar  
    32    17    29 1   
    33    19    30 1   
@<TRIPOS>SUBSTRUCTURE
     1 LWD         1 TEMP              0 ****  ****    0 ROOT
