@<TRIPOS>MOLECULE
LWE
   29    29     1     0     0
SMALL
bcc


@<TRIPOS>ATOM
      1 C7          25.4510    10.8670    -9.6540 c3         1 LWE      -0.046700
      2 C8          23.9560    10.7580    -9.3480 c3         1 LWE      -0.089100
      3 C9          26.2120     9.8600    -8.7950 c3         1 LWE      -0.089100
      4 C1          27.2780    14.9180   -10.0950 c6         1 LWE      -0.055700
      5 C5          25.4160    13.2930   -10.4580 c          1 LWE       0.577100
      6 C6          25.7540    14.7320   -10.1600 c6         1 LWE      -0.182400
      7 C4          25.9390    12.3030    -9.4350 c6         1 LWE      -0.161700
      8 C3          27.4720    12.4820    -9.4160 c6         1 LWE      -0.068400
      9 C2          27.8740    13.9210    -9.1090 c6         1 LWE      -0.079400
     10 C           27.6340    16.3540    -9.7410 c3         1 LWE      -0.087100
     11 H1          25.6100    10.6000   -10.7040 hc         1 LWE       0.062700
     12 H2          23.5970     9.7420    -9.5250 hc         1 LWE       0.033700
     13 H3          23.7650    10.9940    -8.2980 hc         1 LWE       0.033700
     14 H4          23.3530    11.4290    -9.9560 hc         1 LWE       0.033700
     15 H5          27.2600     9.7720    -9.0790 hc         1 LWE       0.033700
     16 H6          26.1740    10.1330    -7.7370 hc         1 LWE       0.033700
     17 H7          25.7680     8.8680    -8.8930 hc         1 LWE       0.033700
     18 H8          27.6830    14.6950   -11.0900 hc         1 LWE       0.053700
     19 H9          25.3130    15.3830   -10.9170 hc         1 LWE       0.064200
     20 H10         25.3240    15.0020    -9.1890 hc         1 LWE       0.064200
     21 H11         25.5790    12.6430    -8.4530 hc         1 LWE       0.061700
     22 H12         27.9040    11.8230    -8.6630 hc         1 LWE       0.048700
     23 H13         27.8910    12.1740   -10.3810 hc         1 LWE       0.048700
     24 H14         28.9630    14.0060    -9.1130 hc         1 LWE       0.043700
     25 H15         27.5440    14.1780    -8.0960 hc         1 LWE       0.043700
     26 H16         28.7160    16.4950    -9.7190 hc         1 LWE       0.036033
     27 H17         27.2210    17.0570   -10.4660 hc         1 LWE       0.036033
     28 H18         27.2410    16.6190    -8.7570 hc         1 LWE       0.036033
     29 O           24.8380    12.9650   -11.4710 o          1 LWE      -0.520100
@<TRIPOS>BOND
     1     1     2 1   
     2     1     3 1   
     3     1     7 1   
     4     1    11 1   
     5     2    12 1   
     6     2    13 1   
     7     2    14 1   
     8     3    15 1   
     9     3    16 1   
    10     3    17 1   
    11     4     6 1   
    12     4     9 1   
    13     4    10 1   
    14     4    18 1   
    15     5     6 1   
    16     5     7 1   
    17     5    29 2   
    18     6    19 1   
    19     6    20 1   
    20     7     8 1   
    21     7    21 1   
    22     8     9 1   
    23     8    22 1   
    24     8    23 1   
    25     9    24 1   
    26     9    25 1   
    27    10    26 1   
    28    10    27 1   
    29    10    28 1   
@<TRIPOS>SUBSTRUCTURE
     1 LWE         1 TEMP              0 ****  ****    0 ROOT
