@<TRIPOS>MOLECULE
LWE
   29    29     1     0     0
SMALL
No Charge or Current Charge


@<TRIPOS>ATOM
      1 C7          25.4370    10.8310    -9.6360 c3         1 LWE      -0.046700
      2 C8          23.9160    10.6690    -9.3760 c3         1 LWE      -0.089100
      3 C9          26.2020     9.7730    -8.8010 c3         1 LWE      -0.089100
      4 C1          27.2810    14.9500   -10.1020 c6         1 LWE      -0.055700
      5 C5          25.3180    13.3390   -10.3920 c          1 LWE       0.577100
      6 C6          25.7390    14.8000   -10.1750 c6         1 LWE      -0.182400
      7 C4          25.9360    12.3090    -9.4030 c6         1 LWE      -0.161700
      8 C3          27.4840    12.4950    -9.3630 c6         1 LWE      -0.068400
      9 C2          27.8860    13.9620    -9.0720 c6         1 LWE      -0.079400
     10 C           27.6930    16.4140    -9.7960 c3         1 LWE      -0.087100
     11 H1          25.6120    10.5730   -10.6890 hc         1 LWE       0.062700
     12 H2          23.5950     9.6410    -9.5830 hc         1 LWE       0.033700
     13 H3          23.6760    10.8960    -8.3300 hc         1 LWE       0.033700
     14 H4          23.3180    11.3310   -10.0120 hc         1 LWE       0.033700
     15 H5          27.2530     9.7120    -9.1050 hc         1 LWE       0.033700
     16 H6          26.1600    10.0150    -7.7320 hc         1 LWE       0.033700
     17 H7          25.7680     8.7760    -8.9420 hc         1 LWE       0.033700
     18 H8          27.6980    14.7150   -11.0920 hc         1 LWE       0.053700
     19 H9          25.2960    15.4450   -10.9450 hc         1 LWE       0.064200
     20 H10         25.3650    15.0860    -9.1830 hc         1 LWE       0.064200
     21 H11         25.6180    12.6330    -8.4020 hc         1 LWE       0.061700
     22 H12         27.9310    11.8610    -8.5860 hc         1 LWE       0.048700
     23 H13         27.9220    12.1740   -10.3190 hc         1 LWE       0.048700
     24 H14         28.9820    14.0460    -9.0780 hc         1 LWE       0.043700
     25 H15         27.5630    14.2360    -8.0580 hc         1 LWE       0.043700
     26 H16         28.7840    16.5250    -9.7910 hc         1 LWE       0.036033
     27 H17         27.2950    17.1030   -10.5500 hc         1 LWE       0.036033
     28 H18         27.3210    16.7380    -8.8160 hc         1 LWE       0.036033
     29 O           24.6800    13.0160   -11.3870 o          1 LWE      -0.520100
@<TRIPOS>BOND
     1     1     2 1   
     2     1     3 1   
     3     1     7 1   
     4     1    11 1   
     5     2    12 1   
     6     2    13 1   
     7     2    14 1   
     8     3    15 1   
     9     3    16 1   
    10     3    17 1   
    11     4     6 1   
    12     4     9 1   
    13     4    10 1   
    14     4    18 1   
    15     5     6 1   
    16     5     7 1   
    17     5    29 2   
    18     6    19 1   
    19     6    20 1   
    20     7     8 1   
    21     7    21 1   
    22     8     9 1   
    23     8    22 1   
    24     8    23 1   
    25     9    24 1   
    26     9    25 1   
    27    10    26 1   
    28    10    27 1   
    29    10    28 1   
@<TRIPOS>SUBSTRUCTURE
     1 LWE         1 TEMP              0 ****  ****    0 ROOT
