@<TRIPOS>MOLECULE
LWF
   20    20     1     0     0
SMALL
abcg2


@<TRIPOS>ATOM
      1 F01        -19.1360   -39.3200    -2.5190 f          1 LWF      -0.145500
      2 C02        -18.7100   -40.1810    -1.5300 c6         1 LWF       0.163000
      3 F03        -17.4080   -39.8080    -1.2880 f          1 LWF      -0.145500
      4 C04        -19.5460   -39.9680    -0.2930 c6         1 LWF      -0.093400
      5 C05        -20.9920   -40.4120    -0.5090 c6         1 LWF      -0.194700
      6 C06        -21.8760   -40.2120     0.7470 c          1 LWF       0.725000
      7 O34        -21.3750   -39.6040     1.7140 o          1 LWF      -0.731500
      8 C35        -21.0290   -41.8580    -1.0080 c6         1 LWF      -0.060400
      9 C36        -20.1860   -42.0560    -2.2630 c6         1 LWF      -0.075400
     10 C37        -18.7460   -41.5980    -2.0490 c6         1 LWF      -0.119400
     11 H7         -19.1020   -40.5510     0.5180 hc         1 LWF       0.066700
     12 H8         -19.4960   -38.9170     0.0020 hc         1 LWF       0.066700
     13 H9         -21.4300   -39.7850    -1.2980 hc         1 LWF       0.039700
     14 H27        -22.0600   -42.1510    -1.2050 hc         1 LWF       0.045200
     15 H28        -20.6570   -42.5210    -0.2180 hc         1 LWF       0.045200
     16 H29        -20.6290   -41.5020    -3.0960 hc         1 LWF       0.028700
     17 H30        -20.1870   -43.1070    -2.5580 hc         1 LWF       0.028700
     18 H31        -18.2660   -42.2390    -1.3040 hc         1 LWF       0.045200
     19 H32        -18.1610   -41.6770    -2.9690 hc         1 LWF       0.045200
     20 OXT        -23.0340   -40.6700     0.6750 o          1 LWF      -0.731500
@<TRIPOS>BOND
     1     1     2 1   
     2     2     3 1   
     3     2     4 1   
     4     2    10 1   
     5     4     5 1   
     6     4    11 1   
     7     4    12 1   
     8     5     6 1   
     9     5     8 1   
    10     5    13 1   
    11     6     7 1   
    12     6    20 1   
    13     8     9 1   
    14     8    14 1   
    15     8    15 1   
    16     9    10 1   
    17     9    16 1   
    18     9    17 1   
    19    10    18 1   
    20    10    19 1   
@<TRIPOS>SUBSTRUCTURE
     1 LWF         1 TEMP              0 ****  ****    0 ROOT
