@<TRIPOS>MOLECULE
LWF
   20    20     1     0     0
SMALL
No Charge or Current Charge


@<TRIPOS>ATOM
      1 F01        -19.2820   -39.3180    -2.7250 f          1 LWF      -0.145500
      2 C02        -18.7690   -40.0630    -1.6460 c6         1 LWF       0.163000
      3 F03        -17.4710   -39.5740    -1.4160 f          1 LWF      -0.145500
      4 C04        -19.6360   -39.8180    -0.3850 c6         1 LWF      -0.093400
      5 C05        -21.0490   -40.4650    -0.5200 c6         1 LWF      -0.194700
      6 C06        -21.9230   -40.2330     0.7380 c          1 LWF       0.725000
      7 O34        -21.5450   -40.6960     1.8040 o          1 LWF      -0.731500
      8 C35        -20.9300   -41.9750    -0.8820 c6         1 LWF      -0.060400
      9 C36        -20.0950   -42.1890    -2.1710 c6         1 LWF      -0.075400
     10 C37        -18.6850   -41.5580    -2.0420 c6         1 LWF      -0.119400
     11 H7         -19.1210   -40.2340     0.4920 hc         1 LWF       0.066700
     12 H8         -19.7320   -38.7390    -0.2040 hc         1 LWF       0.066700
     13 H9         -21.5650   -39.9680    -1.3530 hc         1 LWF       0.039700
     14 H27        -21.9320   -42.4050    -1.0180 hc         1 LWF       0.045200
     15 H28        -20.4670   -42.5250    -0.0510 hc         1 LWF       0.045200
     16 H29        -20.6220   -41.7500    -3.0300 hc         1 LWF       0.028700
     17 H30        -20.0030   -43.2630    -2.3800 hc         1 LWF       0.028700
     18 H31        -18.1090   -42.1050    -1.2820 hc         1 LWF       0.045200
     19 H32        -18.1360   -41.6680    -2.9870 hc         1 LWF       0.045200
     20 OXT        -22.9540   -39.5900     0.6070 o          1 LWF      -0.731500
@<TRIPOS>BOND
     1     1     2 1   
     2     2     3 1   
     3     2     4 1   
     4     2    10 1   
     5     4     5 1   
     6     4    11 1   
     7     4    12 1   
     8     5     6 1   
     9     5     8 1   
    10     5    13 1   
    11     6     7 1   
    12     6    20 1   
    13     8     9 1   
    14     8    14 1   
    15     8    15 1   
    16     9    10 1   
    17     9    16 1   
    18     9    17 1   
    19    10    18 1   
    20    10    19 1   
@<TRIPOS>SUBSTRUCTURE
     1 LWF         1 TEMP              0 ****  ****    0 ROOT
