@<TRIPOS>MOLECULE
LWG
   20    22     1     0     0
SMALL
No Charge or Current Charge


@<TRIPOS>ATOM
      1 C1           2.8260    -1.4620     0.0320 c          1 LWG       0.597200
      2 N1           3.7340    -0.4640     0.0340 ns         1 LWG      -0.412400
      3 O1           3.1400    -2.6420     0.0370 o          1 LWG      -0.529000
      4 S1           0.0240    -1.9780     0.0180 ss         1 LWG       0.219400
      5 Cl1         -3.3050    -2.0020    -0.0010 cl         1 LWG      -0.173000
      6 C2           3.4150     0.8670     0.0280 cc         1 LWG       0.499800
      7 N2           2.1700     1.3500     0.0190 nd         1 LWG      -0.591300
      8 Cl2         -0.0930     3.4840    -0.0000 cl         1 LWG      -0.159000
      9 C3           1.1530     0.3920     0.0160 cd         1 LWG       0.222400
     10 C4           1.4700    -0.9480     0.0220 cc         1 LWG      -0.233600
     11 C5          -0.9900    -0.5010     0.0070 ca         1 LWG      -0.162000
     12 C6          -2.3950    -0.4960    -0.0010 ca         1 LWG       0.123000
     13 C7          -3.0740     0.7360    -0.0080 ca         1 LWG      -0.068000
     14 C8          -2.3470     1.9460    -0.0080 ca         1 LWG      -0.117000
     15 C9          -0.9380     1.9350    -0.0000 ca         1 LWG       0.179000
     16 C10         -0.2710     0.6880     0.0070 ca         1 LWG      -0.054800
     17 HN1          4.7060    -0.7390     0.0400 hn         1 LWG       0.334500
     18 H2           4.2890     1.5060     0.0300 h5         1 LWG       0.052800
     19 H7          -4.1610     0.7540    -0.0140 ha         1 LWG       0.135000
     20 H8          -2.8780     2.8940    -0.0140 ha         1 LWG       0.136000
@<TRIPOS>BOND
     1     1     2 1   
     2     1     3 2   
     3     1    10 1   
     4     2     6 1   
     5     2    17 1   
     6     4    10 1   
     7     4    11 1   
     8     5    12 1   
     9     6     7 2   
    10     6    18 1   
    11     7     9 1   
    12     8    15 1   
    13     9    10 2   
    14     9    16 1   
    15    11    12 ar  
    16    11    16 ar  
    17    12    13 ar  
    18    13    14 ar  
    19    13    19 1   
    20    14    15 ar  
    21    14    20 1   
    22    15    16 ar  
@<TRIPOS>SUBSTRUCTURE
     1 LWG         1 TEMP              0 ****  ****    0 ROOT
