@<TRIPOS>MOLECULE
LWG
   20    22     1     0     0
SMALL
abcg2


@<TRIPOS>ATOM
      1 C1           2.7530    -1.4740     0.0300 c          1 LWG       0.597200
      2 N1           3.6890    -0.4540     0.0340 ns         1 LWG      -0.412400
      3 O1           3.0570    -2.6520     0.0350 o          1 LWG      -0.529000
      4 S1           0.0070    -1.9200     0.0170 ss         1 LWG       0.219400
      5 CL1         -3.2080    -1.9830     0.0000 cl         1 LWG      -0.173000
      6 C2           3.3810     0.8630     0.0290 cc         1 LWG       0.499800
      7 N2           2.1840     1.3380     0.0200 nd         1 LWG      -0.591300
      8 CL2         -0.1020     3.4240    -0.0050 cl         1 LWG      -0.159000
      9 C3           1.1850     0.4170     0.0160 cd         1 LWG       0.222400
     10 C4           1.4230    -0.9390     0.0210 cc         1 LWG      -0.233600
     11 C5          -0.9720    -0.4920     0.0070 ca         1 LWG      -0.162000
     12 C6          -2.3620    -0.4830    -0.0000 ca         1 LWG       0.123000
     13 C7          -3.0280     0.7210    -0.0070 ca         1 LWG      -0.068000
     14 C8          -2.3100     1.9180    -0.0070 ca         1 LWG      -0.117000
     15 C9          -0.9300     1.9140    -0.0010 ca         1 LWG       0.179000
     16 C10         -0.2300     0.7020     0.0070 ca         1 LWG      -0.054800
     17 HN1          4.6680    -0.7150     0.0390 hn         1 LWG       0.334500
     18 H2           4.2290     1.5350     0.0340 h5         1 LWG       0.052800
     19 H7          -4.1090     0.7490    -0.0120 ha         1 LWG       0.135000
     20 H8          -2.8500     2.8540    -0.0140 ha         1 LWG       0.136000
@<TRIPOS>BOND
     1     1     2 1   
     2     1     3 2   
     3     1    10 1   
     4     2     6 1   
     5     2    17 1   
     6     4    10 1   
     7     4    11 1   
     8     5    12 1   
     9     6     7 2   
    10     6    18 1   
    11     7     9 1   
    12     8    15 1   
    13     9    10 2   
    14     9    16 1   
    15    11    12 ar  
    16    11    16 ar  
    17    12    13 ar  
    18    13    14 ar  
    19    13    19 1   
    20    14    15 ar  
    21    14    20 1   
    22    15    16 ar  
@<TRIPOS>SUBSTRUCTURE
     1 LWG         1 TEMP              0 ****  ****    0 ROOT
