@<TRIPOS>MOLECULE
LWH
   48    52     1     0     0
SMALL
bcc


@<TRIPOS>ATOM
      1 C01         -3.2470    -2.7830    -0.1850 ca         1 LWH      -0.089000
      2 C02         -3.0190    -4.1310    -0.0570 ca         1 LWH      -0.143000
      3 C03         -1.7070    -4.6100     0.0880 ca         1 LWH      -0.093000
      4 C04         -0.6440    -3.7440     0.1030 ca         1 LWH      -0.183300
      5 C05         -0.8550    -2.3560    -0.0280 ca         1 LWH       0.465600
      6 C06         -2.1720    -1.8780    -0.1730 ca         1 LWH      -0.316600
      7 C07         -2.3050    -0.4480    -0.2930 ca         1 LWH       0.763200
      8 C08         -0.0090    -0.2520    -0.1320 cp         1 LWH       0.796500
      9 N09         -1.2270     0.3180    -0.2720 nb         1 LWH      -0.881000
     10 N10          0.2210    -1.5280    -0.0080 nb         1 LWH      -0.749000
     11 C11         -3.7080     1.5660    -0.5320 c5         1 LWH       0.198500
     12 C12         -3.5350     2.2600     0.8290 c5         1 LWH       0.125800
     13 C13         -5.8350     2.0320     0.5660 c5         1 LWH       0.137800
     14 C14         -5.1810     1.8480    -0.8290 c5         1 LWH      -0.130400
     15 N15         -3.4970     0.1300    -0.4260 nu         1 LWH      -0.870900
     16 N16         -4.7610     1.9890     1.5600 n7         1 LWH      -0.775200
     17 C17          1.1420     0.6740    -0.1160 cp         1 LWH      -0.267500
     18 C18          0.9900     2.0680    -0.2570 ca         1 LWH       0.216100
     19 C19          2.1280     2.8820    -0.2380 ca         1 LWH      -0.199000
     20 C20          3.3830     2.3400    -0.0790 ca         1 LWH      -0.042000
     21 C21          3.5570     0.9570     0.0600 ca         1 LWH      -0.090000
     22 C22          2.4290     0.1530     0.0330 ca         1 LWH      -0.035000
     23 C23          4.8960     0.4000     0.2210 cc         1 LWH      -0.027300
     24 C24          6.1380     0.9090    -0.1140 cd         1 LWH      -0.311300
     25 C25          7.0470    -0.0860     0.2730 cd         1 LWH       0.303200
     26 N26          5.1400    -0.8120     0.7610 na         1 LWH      -0.001600
     27 N27          6.4300    -1.1260     0.8040 nc         1 LWH      -0.523800
     28 O28         -0.1920     2.6630    -0.4120 oh         1 LWH      -0.522100
     29 H01         -4.2690    -2.4410    -0.2950 ha         1 LWH       0.122000
     30 H02         -3.8490    -4.8230    -0.0670 ha         1 LWH       0.137000
     31 H03         -1.5360    -5.6740     0.1880 ha         1 LWH       0.138000
     32 H04          0.3710    -4.1030     0.2150 ha         1 LWH       0.154000
     33 H15         -4.3070    -0.4630    -0.4970 hn         1 LWH       0.444800
     34 H11         -3.0540     1.9720    -1.3060 h1         1 LWH       0.086700
     35 H121        -2.6610     1.9260     1.3870 h1         1 LWH       0.076200
     36 H122        -3.4280     3.3360     0.6590 h1         1 LWH       0.076200
     37 H141        -5.2530     2.7640    -1.4150 hc         1 LWH       0.059700
     38 H142        -5.6480     1.0590    -1.4200 hc         1 LWH       0.059700
     39 H16         -4.7030     1.0540     1.9440 hn         1 LWH       0.347800
     40 H131        -6.3500     2.9940     0.6070 h1         1 LWH       0.053700
     41 H132        -6.5760     1.2620     0.7810 h1         1 LWH       0.053700
     42 H22          2.5170    -0.9230     0.1130 ha         1 LWH       0.149000
     43 H19          2.0070     3.9530    -0.3400 ha         1 LWH       0.149000
     44 H28         -0.8770     1.9420    -0.4080 ho         1 LWH       0.483000
     45 H20          4.2390     3.0010    -0.0520 ha         1 LWH       0.139000
     46 H24          6.3540     1.8530    -0.5860 ha         1 LWH       0.160000
     47 H26          4.4660    -1.4540     1.1480 hn         1 LWH       0.319700
     48 H25          8.1230    -0.0810     0.1780 h4         1 LWH       0.034100
@<TRIPOS>BOND
     1     1     2 ar  
     2     1     6 ar  
     3     1    29 1   
     4     2     3 ar  
     5     2    30 1   
     6     3     4 ar  
     7     3    31 1   
     8     4     5 ar  
     9     4    32 1   
    10     5     6 ar  
    11     5    10 ar  
    12     6     7 ar  
    13     7     9 ar  
    14     7    15 1   
    15     8     9 ar  
    16     8    10 ar  
    17     8    17 1   
    18    11    12 1   
    19    11    14 1   
    20    11    15 1   
    21    11    34 1   
    22    12    16 1   
    23    12    35 1   
    24    12    36 1   
    25    13    14 1   
    26    13    16 1   
    27    13    40 1   
    28    13    41 1   
    29    14    37 1   
    30    14    38 1   
    31    15    33 1   
    32    16    39 1   
    33    17    18 ar  
    34    17    22 ar  
    35    18    19 ar  
    36    18    28 1   
    37    19    20 ar  
    38    19    43 1   
    39    20    21 ar  
    40    20    45 1   
    41    21    22 ar  
    42    21    23 1   
    43    22    42 1   
    44    23    24 2   
    45    23    26 1   
    46    24    25 1   
    47    24    46 1   
    48    25    27 2   
    49    25    48 1   
    50    26    27 1   
    51    26    47 1   
    52    28    44 1   
@<TRIPOS>SUBSTRUCTURE
     1 LWH         1 TEMP              0 ****  ****    0 ROOT
