@<TRIPOS>MOLECULE
LWH
   48    52     1     0     0
SMALL
No Charge or Current Charge


@<TRIPOS>ATOM
      1 C01         -3.2860    -2.7750     0.2000 ca         1 LWH      -0.071000
      2 C02         -3.0790    -4.1520     0.0150 ca         1 LWH      -0.125000
      3 C03         -1.7740    -4.6640    -0.0600 ca         1 LWH      -0.075000
      4 C04         -0.6740    -3.7970     0.0470 ca         1 LWH      -0.100000
      5 C05         -0.8630    -2.4150     0.2320 ca         1 LWH       0.072000
      6 C06         -2.1790    -1.9020     0.3120 ca         1 LWH      -0.186000
      7 C07         -2.3130    -0.5090     0.4950 ca         1 LWH       0.434900
      8 C08         -0.0190    -0.2680     0.5110 cp         1 LWH       0.270500
      9 N09         -1.2410     0.2920     0.5970 nb         1 LWH      -0.355000
     10 N10          0.1960    -1.5880     0.3310 nb         1 LWH      -0.223000
     11 C11         -3.7610     1.1390    -0.4590 c5         1 LWH       0.198500
     12 C12         -3.6820     2.5480     0.2370 c5         1 LWH       0.125800
     13 C13         -5.6570     2.4890    -0.9970 c5         1 LWH       0.137800
     14 C14         -5.2710     1.0050    -0.8140 c5         1 LWH      -0.130400
     15 N15         -3.5530     0.1150     0.6090 nu         1 LWH      -0.926100
     16 N16         -5.0700     3.1010     0.2130 n7         1 LWH      -0.830400
     17 C17          1.1950     0.6320     0.6100 cp         1 LWH      -0.267500
     18 C18          1.1530     1.9510     1.1470 ca         1 LWH       0.216100
     19 C19          2.3090     2.7380     1.2210 ca         1 LWH      -0.181000
     20 C20          3.5400     2.2500     0.7650 ca         1 LWH      -0.024000
     21 C21          3.6310     0.9530     0.2240 ca         1 LWH      -0.090000
     22 C22          2.4630     0.1630     0.1560 ca         1 LWH      -0.017000
     23 C23          4.9110     0.4170    -0.2600 cc         1 LWH      -0.078000
     24 C24          6.0510     1.1400    -0.4650 cd         1 LWH      -0.228000
     25 C25          7.0220     0.2410    -0.9530 cd         1 LWH       0.237900
     26 N26          5.2460    -0.8790    -0.6430 na         1 LWH      -0.001200
     27 N27          6.5630    -0.9950    -1.0720 nc         1 LWH      -0.523800
     28 O28          0.0010     2.4890     1.6250 oh         1 LWH      -0.561100
     29 H01         -4.3070    -2.4040     0.2480 ha         1 LWH       0.104000
     30 H02         -3.9310    -4.8230    -0.0710 ha         1 LWH       0.119000
     31 H03         -1.6150    -5.7310    -0.2030 ha         1 LWH       0.120000
     32 H04          0.3340    -4.2010    -0.0140 ha         1 LWH       0.136000
     33 H15         -4.3070    -0.5410     0.7950 hn         1 LWH       0.500000
     34 H11         -3.1060     1.0540    -1.3410 h1         1 LWH       0.086700
     35 H121        -3.2850     2.4990     1.2610 h1         1 LWH       0.076200
     36 H122        -3.0060     3.1970    -0.3380 h1         1 LWH       0.076200
     37 H141        -5.4340     0.4160    -1.7230 hc         1 LWH       0.059700
     38 H142        -5.8780     0.5550    -0.0180 hc         1 LWH       0.059700
     39 H16         -5.5730     2.7180     1.0230 hn         1 LWH       0.403000
     40 H131        -5.2150     2.9120    -1.9120 h1         1 LWH       0.053700
     41 H132        -6.7460     2.6340    -1.0450 h1         1 LWH       0.053700
     42 H22          2.5410    -0.8320    -0.2730 ha         1 LWH       0.131000
     43 H19          2.2520     3.7380     1.6420 ha         1 LWH       0.131000
     44 H28         -0.7030     1.8270     1.4320 ho         1 LWH       0.522000
     45 H20          4.4180     2.8850     0.8460 ha         1 LWH       0.121000
     46 H24          6.2020     2.2010    -0.3020 ha         1 LWH       0.142000
     47 H26          4.6270    -1.6870    -0.6220 hn         1 LWH       0.370000
     48 H25          8.0470     0.4550    -1.2290 h4         1 LWH       0.034100
@<TRIPOS>BOND
     1     1     2 ar  
     2     1     6 ar  
     3     1    29 1   
     4     2     3 ar  
     5     2    30 1   
     6     3     4 ar  
     7     3    31 1   
     8     4     5 ar  
     9     4    32 1   
    10     5     6 ar  
    11     5    10 ar  
    12     6     7 ar  
    13     7     9 ar  
    14     7    15 1   
    15     8     9 ar  
    16     8    10 ar  
    17     8    17 1   
    18    11    12 1   
    19    11    14 1   
    20    11    15 1   
    21    11    34 1   
    22    12    16 1   
    23    12    35 1   
    24    12    36 1   
    25    13    14 1   
    26    13    16 1   
    27    13    40 1   
    28    13    41 1   
    29    14    37 1   
    30    14    38 1   
    31    15    33 1   
    32    16    39 1   
    33    17    18 ar  
    34    17    22 ar  
    35    18    19 ar  
    36    18    28 1   
    37    19    20 ar  
    38    19    43 1   
    39    20    21 ar  
    40    20    45 1   
    41    21    22 ar  
    42    21    23 1   
    43    22    42 1   
    44    23    24 2   
    45    23    26 1   
    46    24    25 1   
    47    24    46 1   
    48    25    27 2   
    49    25    48 1   
    50    26    27 1   
    51    26    47 1   
    52    28    44 1   
@<TRIPOS>SUBSTRUCTURE
     1 LWH         1 TEMP              0 ****  ****    0 ROOT
