@<TRIPOS>MOLECULE
LWI
   27    27     1     0     0
SMALL
No Charge or Current Charge


@<TRIPOS>ATOM
      1 N          -34.4270   -35.2790    18.9700 n8         1 LWI      -0.867800
      2 CA         -33.1000   -35.4940    18.2830 c3         1 LWI       0.028500
      3 CB         -32.8610   -37.0130    18.0460 c3         1 LWI      -0.032100
      4 C          -32.8220   -34.6300    16.9700 c          1 LWI       0.929600
      5 O          -33.0280   -35.1210    15.8620 o          1 LWI      -0.829800
      6 C1         -32.8860   -37.8570    19.3290 ca         1 LWI      -0.051300
      7 C2         -34.0380   -38.6290    19.5940 ca         1 LWI      -0.128000
      8 C3         -34.1210   -39.4330    20.7410 ca         1 LWI      -0.143000
      9 C4         -33.0480   -39.4790    21.6400 ca         1 LWI      -0.158000
     10 C5         -31.8950   -38.7190    21.3910 ca         1 LWI      -0.124000
     11 C6         -31.7960   -37.9020    20.2440 ca         1 LWI      -0.086300
     12 C7         -30.4980   -37.1130    20.0410 c3         1 LWI       0.187100
     13 N8         -30.3580   -36.0270    21.0310 n8         1 LWI      -0.895800
     14 H1         -34.4580   -35.8550    19.8170 hn         1 LWI       0.312300
     15 H2         -34.4800   -34.3120    19.3070 hn         1 LWI       0.312300
     16 H4         -32.3470   -35.1700    19.0130 h1         1 LWI      -0.002300
     17 H5         -33.6190   -37.3780    17.3430 hc         1 LWI       0.059700
     18 H6         -31.9080   -37.1530    17.5230 hc         1 LWI       0.059700
     19 H8         -34.8800   -38.6030    18.9040 ha         1 LWI       0.142000
     20 H9         -35.0170   -40.0210    20.9310 ha         1 LWI       0.114000
     21 H10        -33.1090   -40.1020    22.5310 ha         1 LWI       0.110000
     22 H11        -31.0670   -38.7610    22.0970 ha         1 LWI       0.131000
     23 H12        -29.6430   -37.7960    20.1490 h1         1 LWI       0.051200
     24 H13        -30.4410   -36.6770    19.0360 h1         1 LWI       0.051200
     25 H14        -29.5130   -35.4870    20.8190 hn         1 LWI       0.331800
     26 H15        -31.1290   -35.3660    20.9010 hn         1 LWI       0.331800
     27 O1         -32.3970   -33.4860    17.1050 o          1 LWI      -0.829800
@<TRIPOS>BOND
     1     1     2 1   
     2     1    14 1   
     3     1    15 1   
     4     2     3 1   
     5     2     4 1   
     6     2    16 1   
     7     3     6 1   
     8     3    17 1   
     9     3    18 1   
    10     4     5 1   
    11     4    27 1   
    12     6     7 ar  
    13     6    11 ar  
    14     7     8 ar  
    15     7    19 1   
    16     8     9 ar  
    17     8    20 1   
    18     9    10 ar  
    19     9    21 1   
    20    10    11 ar  
    21    10    22 1   
    22    11    12 1   
    23    12    13 1   
    24    12    23 1   
    25    12    24 1   
    26    13    25 1   
    27    13    26 1   
@<TRIPOS>SUBSTRUCTURE
     1 LWI         1 TEMP              0 ****  ****    0 ROOT
