@<TRIPOS>MOLECULE
LWI
   27    27     1     0     0
SMALL
bcc


@<TRIPOS>ATOM
      1 N          -34.6740   -35.5480    18.5570 n8         1 LWI      -0.867800
      2 CA         -33.2540   -35.5100    18.2100 c3         1 LWI       0.028500
      3 CB         -32.7180   -36.9420    18.0720 c3         1 LWI      -0.032100
      4 C          -33.0870   -34.7250    16.8820 c          1 LWI       0.929600
      5 O          -33.4750   -35.2900    15.8410 o          1 LWI      -0.829800
      6 C1         -32.8100   -37.7440    19.3430 ca         1 LWI      -0.051300
      7 C2         -33.9370   -38.5320    19.5670 ca         1 LWI      -0.128000
      8 C3         -34.0930   -39.2660    20.7350 ca         1 LWI      -0.143000
      9 C4         -33.1020   -39.2230    21.7010 ca         1 LWI      -0.158000
     10 C5         -31.9650   -38.4550    21.4860 ca         1 LWI      -0.124000
     11 C6         -31.8030   -37.7090    20.3220 ca         1 LWI      -0.086300
     12 C7         -30.5500   -36.8940    20.0950 c3         1 LWI       0.187100
     13 N8         -29.6460   -36.9030    21.2300 n8         1 LWI      -0.895800
     14 H1         -34.7820   -35.9450    19.4840 hn         1 LWI       0.312300
     15 H2         -35.0230   -34.6000    18.6350 hn         1 LWI       0.312300
     16 H4         -32.6590   -34.9940    18.9790 h1         1 LWI      -0.002300
     17 H5         -33.2900   -37.4390    17.2870 hc         1 LWI       0.059700
     18 H6         -31.6840   -36.8980    17.7200 hc         1 LWI       0.059700
     19 H8         -34.7080   -38.5760    18.8060 ha         1 LWI       0.142000
     20 H9         -34.9810   -39.8680    20.8830 ha         1 LWI       0.114000
     21 H10        -33.2040   -39.7910    22.6180 ha         1 LWI       0.110000
     22 H11        -31.1840   -38.4380    22.2350 ha         1 LWI       0.131000
     23 H12        -30.0150   -37.3160    19.2390 h1         1 LWI       0.051200
     24 H13        -30.8410   -35.8810    19.7840 h1         1 LWI       0.051200
     25 H14        -28.7790   -36.4590    20.9590 hn         1 LWI       0.331800
     26 H15        -30.0270   -36.3300    21.9740 hn         1 LWI       0.331800
     27 O1         -32.5940   -33.5830    16.9750 o          1 LWI      -0.829800
@<TRIPOS>BOND
     1     1     2 1   
     2     1    14 1   
     3     1    15 1   
     4     2     3 1   
     5     2     4 1   
     6     2    16 1   
     7     3     6 1   
     8     3    17 1   
     9     3    18 1   
    10     4     5 1   
    11     4    27 1   
    12     6     7 ar  
    13     6    11 ar  
    14     7     8 ar  
    15     7    19 1   
    16     8     9 ar  
    17     8    20 1   
    18     9    10 ar  
    19     9    21 1   
    20    10    11 ar  
    21    10    22 1   
    22    11    12 1   
    23    12    13 1   
    24    12    23 1   
    25    12    24 1   
    26    13    25 1   
    27    13    26 1   
@<TRIPOS>SUBSTRUCTURE
     1 LWI         1 TEMP              0 ****  ****    0 ROOT
