@<TRIPOS>MOLECULE
LWJ
   43    47     1     0     0
SMALL
No Charge or Current Charge


@<TRIPOS>ATOM
      1 C1          -5.4240     0.3010     0.5940 ca         1 LWJ       0.075400
      2 C2          -4.8480    -0.6280    -0.2220 ca         1 LWJ      -0.078200
      3 N3          -5.8650    -1.3230    -0.8010 na         1 LWJ      -0.312600
      4 C4          -7.0520    -0.7880    -0.3110 cc         1 LWJ       0.428800
      5 N5          -6.8130     0.2180     0.5540 nd         1 LWJ      -0.573100
      6 C6           5.7310     0.2320    -0.2870 ca         1 LWJ      -0.118800
      7 C7           5.1640    -0.9130     0.1890 ca         1 LWJ      -0.037200
      8 C8           5.9430    -2.0200     0.5520 ca         1 LWJ      -0.134000
      9 C9           7.3440    -1.9140     0.4100 ca         1 LWJ      -0.083000
     10 C10          7.9280    -0.7210    -0.0860 ca         1 LWJ      -0.147000
     11 C11          7.1150     0.3780    -0.4430 ca         1 LWJ      -0.050000
     12 C12          3.4150     0.5290    -0.2320 cc         1 LWJ      -0.147300
     13 N13          3.7870    -0.7610     0.2320 na         1 LWJ      -0.207700
     14 C14          4.6350     1.1260    -0.5470 cd         1 LWJ      -0.166200
     15 C15         -0.4010     1.0590    -0.1400 cc         1 LWJ       0.347000
     16 C16          0.8410     0.5110    -0.0530 cd         1 LWJ      -0.396600
     17 C17          0.6520    -0.8220     0.4040 cd         1 LWJ       0.310900
     18 N18         -0.6130    -1.1510     0.6070 nc         1 LWJ      -0.513800
     19 N19         -1.2430     0.0180     0.2600 na         1 LWJ       0.163000
     20 O21          2.0630     2.3740    -0.8180 o          1 LWJ      -0.579100
     21 C22         -2.6340     0.1160     0.3680 ca         1 LWJ       0.012800
     22 C23         -3.4620    -0.7630    -0.3680 ca         1 LWJ      -0.090000
     23 C24         -4.6300     1.1820     1.3420 ca         1 LWJ      -0.040000
     24 C25         -3.2250     1.0830     1.2250 ca         1 LWJ      -0.145000
     25 N26         -0.8060     2.3040    -0.5320 nv         1 LWJ      -1.080000
     26 C27         -8.4140    -1.2770    -0.7030 c3         1 LWJ      -0.117400
     27 H1          -5.7890    -2.0860    -1.4610 hn         1 LWJ       0.360000
     28 H4           7.9800    -2.7540     0.6830 ha         1 LWJ       0.110000
     29 H5           9.0080    -0.6500    -0.1910 ha         1 LWJ       0.111000
     30 H6           7.5470     1.3000    -0.8250 ha         1 LWJ       0.115000
     31 H7           3.1490    -1.4770     0.5590 hn         1 LWJ       0.353000
     32 H8           4.7400     2.1370    -0.9370 ha         1 LWJ       0.216000
     33 H9           1.3960    -1.5810     0.5950 h4         1 LWJ       0.041100
     34 H10         -3.0370    -1.5170    -1.0270 ha         1 LWJ       0.140000
     35 H11         -5.0870     1.9210     1.9960 ha         1 LWJ       0.137000
     36 H12         -2.5940     1.7540     1.8030 ha         1 LWJ       0.133000
     37 H13         -0.1050     2.9150    -0.9510 hn         1 LWJ       0.501000
     38 H14         -1.7790     2.4600    -0.7920 hn         1 LWJ       0.501000
     39 H15         -8.5640    -1.1740    -1.7830 hc         1 LWJ       0.062033
     40 H16         -8.5350    -2.3330    -0.4380 hc         1 LWJ       0.062033
     41 H17         -9.1990    -0.7060    -0.1950 hc         1 LWJ       0.062033
     42 C20          2.0970     1.2220    -0.3970 c          1 LWJ       0.660900
     43 H3           5.4860    -2.9310     0.9320 ha         1 LWJ       0.114000
@<TRIPOS>BOND
     1     1     2 ar  
     2     1     5 1   
     3     1    23 ar  
     4     2     3 1   
     5     2    22 ar  
     6     3     4 1   
     7     3    27 1   
     8     4     5 2   
     9     4    26 1   
    10     6     7 ar  
    11     6    11 ar  
    12     6    14 1   
    13     7     8 ar  
    14     7    13 1   
    15     8     9 ar  
    16     8    43 1   
    17     9    10 ar  
    18     9    28 1   
    19    10    11 ar  
    20    10    29 1   
    21    11    30 1   
    22    12    13 1   
    23    12    14 2   
    24    12    42 1   
    25    13    31 1   
    26    14    32 1   
    27    15    16 2   
    28    15    19 1   
    29    15    25 1   
    30    16    17 1   
    31    16    42 1   
    32    17    18 2   
    33    17    33 1   
    34    18    19 1   
    35    19    21 1   
    36    20    42 2   
    37    21    22 ar  
    38    21    24 ar  
    39    22    34 1   
    40    23    24 ar  
    41    23    35 1   
    42    24    36 1   
    43    25    37 1   
    44    25    38 1   
    45    26    39 1   
    46    26    40 1   
    47    26    41 1   
@<TRIPOS>SUBSTRUCTURE
     1 LWJ         1 TEMP              0 ****  ****    0 ROOT
