@<TRIPOS>MOLECULE
LWJ
   43    47     1     0     0
SMALL
abcg2


@<TRIPOS>ATOM
      1 C1          -5.3410     0.1760     0.6540 ca         1 LWJ       0.075400
      2 C2          -4.7390    -0.6400    -0.3210 ca         1 LWJ      -0.078200
      3 N3          -5.7860    -1.2610    -0.9410 na         1 LWJ      -0.312600
      4 C4          -6.9320    -0.8230    -0.3530 cc         1 LWJ       0.428800
      5 N5          -6.7060     0.0370     0.6050 nd         1 LWJ      -0.573100
      6 C6           5.6050     0.1640    -0.5300 ca         1 LWJ      -0.118800
      7 C7           5.0240    -0.7270     0.4010 ca         1 LWJ      -0.037200
      8 C8           5.7620    -1.7340     1.0270 ca         1 LWJ      -0.134000
      9 C9           7.0940    -1.8430     0.6880 ca         1 LWJ      -0.083000
     10 C10          7.6890    -0.9760    -0.2480 ca         1 LWJ      -0.147000
     11 C11          6.9610     0.0220    -0.8580 ca         1 LWJ      -0.050000
     12 C12          3.4380     0.6950    -0.2640 cc         1 LWJ      -0.147300
     13 N13          3.7100    -0.3970     0.5260 na         1 LWJ      -0.207700
     14 C14          4.5790     1.0650    -0.9280 cd         1 LWJ      -0.166200
     15 C15         -0.3650     1.1010    -0.0010 cc         1 LWJ       0.347000
     16 C16          0.9300     0.5610    -0.1060 cd         1 LWJ      -0.396600
     17 C17          0.7170    -0.8390     0.0090 cd         1 LWJ       0.310900
     18 N18         -0.5370    -1.1360     0.1820 nc         1 LWJ      -0.513800
     19 N19         -1.1930     0.0580     0.1940 na         1 LWJ       0.163000
     20 O21          2.0580     2.5180    -0.6960 o          1 LWJ      -0.579100
     21 C22         -2.6000     0.0900     0.3330 ca         1 LWJ       0.012800
     22 C23         -3.3680    -0.6960    -0.5120 ca         1 LWJ      -0.090000
     23 C24         -4.5450     0.9570     1.4880 ca         1 LWJ      -0.040000
     24 C25         -3.1720     0.8980     1.3260 ca         1 LWJ      -0.145000
     25 N26         -0.7660     2.3830    -0.0400 nv         1 LWJ      -1.080000
     26 C27         -8.2660    -1.3050    -0.7870 c3         1 LWJ      -0.117400
     27 H1          -5.7280    -1.9210    -1.7000 hn         1 LWJ       0.360000
     28 H4           7.6970    -2.6140     1.1510 ha         1 LWJ       0.110000
     29 H5           8.7370    -1.1000    -0.4880 ha         1 LWJ       0.111000
     30 H6           7.4280     0.6870    -1.5740 ha         1 LWJ       0.115000
     31 H7           3.0940    -0.7770     1.2260 hn         1 LWJ       0.353000
     32 H8           4.6590     1.8700    -1.6420 ha         1 LWJ       0.216000
     33 H9           1.4440    -1.6330    -0.0620 h4         1 LWJ       0.041100
     34 H10         -2.9130    -1.3150    -1.2730 ha         1 LWJ       0.140000
     35 H11         -4.9850     1.5810     2.2550 ha         1 LWJ       0.137000
     36 H12         -2.5310     1.4680     1.9850 ha         1 LWJ       0.133000
     37 H13         -0.1060     3.0360    -0.4300 hn         1 LWJ       0.501000
     38 H14         -1.7370     2.5880    -0.2090 hn         1 LWJ       0.501000
     39 H15         -8.4220    -1.1190    -1.8500 hc         1 LWJ       0.062033
     40 H16         -8.3630    -2.3800    -0.6250 hc         1 LWJ       0.062033
     41 H17         -9.0460    -0.7990    -0.2250 hc         1 LWJ       0.062033
     42 C20          2.1160     1.3340    -0.3690 c          1 LWJ       0.660900
     43 H3           5.3060    -2.4030     1.7450 ha         1 LWJ       0.114000
@<TRIPOS>BOND
     1     1     2 ar  
     2     1     5 1   
     3     1    23 ar  
     4     2     3 1   
     5     2    22 ar  
     6     3     4 1   
     7     3    27 1   
     8     4     5 2   
     9     4    26 1   
    10     6     7 ar  
    11     6    11 ar  
    12     6    14 1   
    13     7     8 ar  
    14     7    13 1   
    15     8     9 ar  
    16     8    43 1   
    17     9    10 ar  
    18     9    28 1   
    19    10    11 ar  
    20    10    29 1   
    21    11    30 1   
    22    12    13 1   
    23    12    14 2   
    24    12    42 1   
    25    13    31 1   
    26    14    32 1   
    27    15    16 2   
    28    15    19 1   
    29    15    25 1   
    30    16    17 1   
    31    16    42 1   
    32    17    18 2   
    33    17    33 1   
    34    18    19 1   
    35    19    21 1   
    36    20    42 2   
    37    21    22 ar  
    38    21    24 ar  
    39    22    34 1   
    40    23    24 ar  
    41    23    35 1   
    42    24    36 1   
    43    25    37 1   
    44    25    38 1   
    45    26    39 1   
    46    26    40 1   
    47    26    41 1   
@<TRIPOS>SUBSTRUCTURE
     1 LWJ         1 TEMP              0 ****  ****    0 ROOT
