@<TRIPOS>MOLECULE
LWK
   58    62     1     0     0
SMALL
No Charge or Current Charge


@<TRIPOS>ATOM
      1 C1         -81.5020   -97.5550    77.2320 ca         1 LWK      -0.121000
      2 C2         -82.5940   -97.3070    76.3620 ca         1 LWK      -0.044300
      3 C3         -82.3700   -96.6480    75.1290 ca         1 LWK      -0.096000
      4 C11        -78.1850   -94.7010    72.9290 c6         1 LWK       0.041700
      5 C13        -78.5900   -94.7100    71.4280 c6         1 LWK      -0.082400
      6 C14        -77.5820   -93.9070    70.5730 c6         1 LWK      -0.165400
      7 C15        -77.2800   -92.5160    71.1390 c          1 LWK       0.578000
      8 C17        -77.8310   -93.2650    73.4270 c          1 LWK       0.551000
      9 C20        -84.9850   -96.5590    76.9010 c6         1 LWK      -0.069900
     10 C21        -86.4030   -97.0400    77.2930 c6         1 LWK       0.165800
     11 C23        -86.0280   -99.2130    76.1970 c6         1 LWK       0.165800
     12 C24        -84.5990   -98.7910    75.7770 c6         1 LWK      -0.069900
     13 C25        -88.3360   -98.4140    76.6240 c3         1 LWK       0.214100
     14 C26        -88.9810   -99.2820    75.5450 ca         1 LWK      -0.087300
     15 C27        -89.2480   -98.7430    74.2700 ca         1 LWK      -0.098500
     16 C28        -89.8420   -99.5370    73.2740 ca         1 LWK      -0.114500
     17 C29        -90.1720  -100.8760    73.5450 ca         1 LWK      -0.109000
     18 C30        -89.9080  -101.4190    74.8140 ca         1 LWK      -0.114500
     19 C10        -84.0070   -97.7550    76.7660 c6         1 LWK      -0.024400
     20 C31        -89.3140  -100.6250    75.8110 ca         1 LWK      -0.098500
     21 C4         -81.0680   -96.2530    74.7910 ca         1 LWK      -0.079300
     22 C5         -80.0160   -96.5050    75.6520 ca         1 LWK      -0.160600
     23 C6         -80.1980   -97.1530    76.8810 ca         1 LWK      -0.033000
     24 C7         -80.6100   -95.5370    73.5270 c5         1 LWK       0.144300
     25 C9         -78.7780   -95.9830    75.0490 c          1 LWK       0.592600
     26 N16        -77.4530   -92.3470    72.4830 ns         1 LWK      -0.484500
     27 N22        -86.9350   -98.0350    76.3210 n3         1 LWK      -0.720600
     28 N8         -79.1390   -95.4480    73.8020 n          1 LWK      -0.409800
     29 O12        -77.6520   -96.0200    75.5270 o          1 LWK      -0.532000
     30 O18        -77.8490   -92.9500    74.6070 o          1 LWK      -0.498000
     31 O19        -76.9570   -91.5810    70.4260 o          1 LWK      -0.512000
     32 H1         -81.6630   -98.0590    78.1810 ha         1 LWK       0.118000
     33 H2         -83.1920   -96.4470    74.4470 ha         1 LWK       0.123000
     34 H3         -77.2210   -95.2270    72.9860 h1         1 LWK       0.107700
     35 H4         -79.5860   -94.2610    71.3070 hc         1 LWK       0.064200
     36 H5         -78.6620   -95.7430    71.0600 hc         1 LWK       0.064200
     37 H6         -77.8710   -93.8280    69.5170 hc         1 LWK       0.084200
     38 H7         -76.6280   -94.4510    70.6000 hc         1 LWK       0.084200
     39 H8         -84.6130   -95.8540    77.6560 hc         1 LWK       0.050950
     40 H9         -85.0430   -96.0030    75.9550 hc         1 LWK       0.050950
     41 H10        -87.0680   -96.1660    77.3440 h1         1 LWK       0.034200
     42 H11        -86.3670   -97.4780    78.3020 h1         1 LWK       0.034200
     43 H12        -86.4110   -99.9200    75.4470 h1         1 LWK       0.034200
     44 H13        -85.9760   -99.7540    77.1540 h1         1 LWK       0.034200
     45 H14        -83.9520   -99.6780    75.7320 hc         1 LWK       0.050950
     46 H15        -84.6320   -98.3760    74.7610 hc         1 LWK       0.050950
     47 H16        -88.9480   -97.5080    76.7330 h1         1 LWK       0.037700
     48 H17        -88.3810   -98.9420    77.5870 h1         1 LWK       0.037700
     49 H18        -88.9910   -97.7080    74.0550 ha         1 LWK       0.116500
     50 H19        -90.0440   -99.1150    72.2920 ha         1 LWK       0.111000
     51 H20        -90.6310  -101.4910    72.7740 ha         1 LWK       0.111000
     52 H21        -90.1620  -102.4560    75.0240 ha         1 LWK       0.111000
     53 H22        -83.9470   -98.2400    77.7510 hc         1 LWK       0.051700
     54 H23        -89.1120  -101.0550    76.7890 ha         1 LWK       0.116500
     55 H24        -79.3560   -97.3400    77.5460 ha         1 LWK       0.136000
     56 H25        -81.0720   -94.5450    73.4330 h1         1 LWK       0.063700
     57 H26        -80.8270   -96.1290    72.6280 h1         1 LWK       0.063700
     58 H27        -77.2480   -91.4240    72.8330 hn         1 LWK       0.330500
@<TRIPOS>BOND
     1     1     2 ar  
     2     1    23 ar  
     3     1    32 1   
     4     2     3 ar  
     5     2    19 1   
     6     3    21 ar  
     7     3    33 1   
     8     4     5 1   
     9     4     8 1   
    10     4    28 1   
    11     4    34 1   
    12     5     6 1   
    13     5    35 1   
    14     5    36 1   
    15     6     7 1   
    16     6    37 1   
    17     6    38 1   
    18     7    26 1   
    19     7    31 2   
    20     8    26 1   
    21     8    30 2   
    22     9    10 1   
    23     9    19 1   
    24     9    39 1   
    25     9    40 1   
    26    10    27 1   
    27    10    41 1   
    28    10    42 1   
    29    11    12 1   
    30    11    27 1   
    31    11    43 1   
    32    11    44 1   
    33    12    19 1   
    34    12    45 1   
    35    12    46 1   
    36    13    14 1   
    37    13    27 1   
    38    13    47 1   
    39    13    48 1   
    40    14    15 ar  
    41    14    20 ar  
    42    15    16 ar  
    43    15    49 1   
    44    16    17 ar  
    45    16    50 1   
    46    17    18 ar  
    47    17    51 1   
    48    18    20 ar  
    49    18    52 1   
    50    19    53 1   
    51    20    54 1   
    52    21    22 ar  
    53    21    24 1   
    54    22    23 ar  
    55    22    25 1   
    56    23    55 1   
    57    24    28 1   
    58    24    56 1   
    59    24    57 1   
    60    25    28 1   
    61    25    29 2   
    62    26    58 1   
@<TRIPOS>SUBSTRUCTURE
     1 LWK         1 TEMP              0 ****  ****    0 ROOT
