@<TRIPOS>MOLECULE
LWK
   58    62     1     0     0
SMALL
bcc


@<TRIPOS>ATOM
      1 C1         -81.4620   -97.6160    77.1550 ca         1 LWK      -0.139000
      2 C2         -82.5760   -97.3140    76.3650 ca         1 LWK      -0.044300
      3 C3         -82.4000   -96.5930    75.1820 ca         1 LWK      -0.114000
      4 C11        -78.3380   -94.6530    72.9780 c6         1 LWK       0.041700
      5 C13        -78.5590   -94.8900    71.4900 c6         1 LWK      -0.082400
      6 C14        -77.5160   -94.1120    70.7060 c6         1 LWK      -0.165400
      7 C15        -77.4870   -92.6510    71.0570 c          1 LWK       0.720500
      8 C17        -78.4010   -93.1660    73.3030 c          1 LWK       0.693500
      9 C20        -84.9430   -96.6340    76.9460 c6         1 LWK      -0.069900
     10 C21        -86.3120   -97.1630    77.3440 c6         1 LWK       0.165800
     11 C23        -85.9080   -99.2530    76.2480 c6         1 LWK       0.165800
     12 C24        -84.5220   -98.8110    75.8100 c6         1 LWK      -0.069900
     13 C25        -88.1580   -98.5430    76.6850 c3         1 LWK       0.214100
     14 C26        -88.8190   -99.2670    75.5410 ca         1 LWK      -0.087300
     15 C27        -88.7550   -98.7500    74.2480 ca         1 LWK      -0.116500
     16 C28        -89.3920   -99.3930    73.1960 ca         1 LWK      -0.132500
     17 C29        -90.1050  -100.5660    73.4220 ca         1 LWK      -0.127000
     18 C30        -90.1710  -101.0890    74.7040 ca         1 LWK      -0.132500
     19 C10        -83.9450   -97.7820    76.7840 c6         1 LWK      -0.024400
     20 C31        -89.5280  -100.4440    75.7550 ca         1 LWK      -0.116500
     21 C4         -81.1270   -96.1940    74.8240 ca         1 LWK      -0.079300
     22 C5         -80.0360   -96.5080    75.6160 ca         1 LWK      -0.160600
     23 C6         -80.1830   -97.2200    76.7930 ca         1 LWK      -0.051000
     24 C7         -80.6610   -95.4240    73.6280 c5         1 LWK       0.144300
     25 C9         -78.8180   -95.9640    74.9910 c          1 LWK       0.735100
     26 N16        -77.9340   -92.3200    72.3230 ns         1 LWK      -0.618500
     27 N22        -86.8080   -98.1200    76.3730 n3         1 LWK      -0.720600
     28 N8         -79.2230   -95.3920    73.8220 n          1 LWK      -0.476800
     29 O12        -77.6750   -96.0130    75.4060 o          1 LWK      -0.607500
     30 O18        -78.8060   -92.7390    74.3570 o          1 LWK      -0.573500
     31 O19        -77.0870   -91.7900    70.3090 o          1 LWK      -0.587500
     32 H1         -81.6060   -98.1760    78.0720 ha         1 LWK       0.136000
     33 H2         -83.2480   -96.3520    74.5500 ha         1 LWK       0.141000
     34 H3         -77.3170   -94.9710    73.2220 h1         1 LWK       0.107700
     35 H4         -79.5620   -94.5770    71.1890 hc         1 LWK       0.064200
     36 H5         -78.4710   -95.9540    71.2730 hc         1 LWK       0.064200
     37 H6         -77.6740   -94.2000    69.6320 hc         1 LWK       0.084200
     38 H7         -76.5180   -94.5140    70.9120 hc         1 LWK       0.084200
     39 H8         -84.5920   -95.9310    77.7040 hc         1 LWK       0.050950
     40 H9         -85.0330   -96.0800    76.0080 hc         1 LWK       0.050950
     41 H10        -87.0200   -96.3330    77.4090 h1         1 LWK       0.034200
     42 H11        -86.2500   -97.6060    78.3540 h1         1 LWK       0.034200
     43 H12        -86.3160   -99.9510    75.5150 h1         1 LWK       0.034200
     44 H13        -85.8330   -99.8050    77.2030 h1         1 LWK       0.034200
     45 H14        -83.8670   -99.6830    75.7490 hc         1 LWK       0.050950
     46 H15        -84.5810   -98.3800    74.8060 hc         1 LWK       0.050950
     47 H16        -88.7430   -97.6470    76.9180 h1         1 LWK       0.037700
     48 H17        -88.1950   -99.1740    77.5890 h1         1 LWK       0.037700
     49 H18        -88.1940   -97.8420    74.0650 ha         1 LWK       0.134500
     50 H19        -89.3320   -98.9800    72.1980 ha         1 LWK       0.129000
     51 H20        -90.6020  -101.0670    72.6010 ha         1 LWK       0.129000
     52 H21        -90.7180  -102.0050    74.8900 ha         1 LWK       0.129000
     53 H22        -83.8470   -98.2720    77.7600 hc         1 LWK       0.051700
     54 H23        -89.5770  -100.8640    76.7530 ha         1 LWK       0.134500
     55 H24        -79.3300   -97.4650    77.4130 ha         1 LWK       0.154000
     56 H25        -81.0840   -94.4150    73.6010 h1         1 LWK       0.063700
     57 H26        -80.9310   -95.9200    72.6920 h1         1 LWK       0.063700
     58 H27        -77.9240   -91.3330    72.5550 hn         1 LWK       0.330500
@<TRIPOS>BOND
     1     1     2 ar  
     2     1    23 ar  
     3     1    32 1   
     4     2     3 ar  
     5     2    19 1   
     6     3    21 ar  
     7     3    33 1   
     8     4     5 1   
     9     4     8 1   
    10     4    28 1   
    11     4    34 1   
    12     5     6 1   
    13     5    35 1   
    14     5    36 1   
    15     6     7 1   
    16     6    37 1   
    17     6    38 1   
    18     7    26 1   
    19     7    31 2   
    20     8    26 1   
    21     8    30 2   
    22     9    10 1   
    23     9    19 1   
    24     9    39 1   
    25     9    40 1   
    26    10    27 1   
    27    10    41 1   
    28    10    42 1   
    29    11    12 1   
    30    11    27 1   
    31    11    43 1   
    32    11    44 1   
    33    12    19 1   
    34    12    45 1   
    35    12    46 1   
    36    13    14 1   
    37    13    27 1   
    38    13    47 1   
    39    13    48 1   
    40    14    15 ar  
    41    14    20 ar  
    42    15    16 ar  
    43    15    49 1   
    44    16    17 ar  
    45    16    50 1   
    46    17    18 ar  
    47    17    51 1   
    48    18    20 ar  
    49    18    52 1   
    50    19    53 1   
    51    20    54 1   
    52    21    22 ar  
    53    21    24 1   
    54    22    23 ar  
    55    22    25 1   
    56    23    55 1   
    57    24    28 1   
    58    24    56 1   
    59    24    57 1   
    60    25    28 1   
    61    25    29 2   
    62    26    58 1   
@<TRIPOS>SUBSTRUCTURE
     1 LWK         1 TEMP              0 ****  ****    0 ROOT
