@<TRIPOS>MOLECULE
LWL
   33    33     1     0     0
SMALL
No Charge or Current Charge


@<TRIPOS>ATOM
      1 C10        194.6480   -94.4060     7.4860 ce         1 LWL       0.307200
      2 C01       -195.8380   -94.9260    14.3410 c3         1 LWL       0.075900
      3 C03        194.1960   -93.1920    13.5990 c3         1 LWL       0.075900
      4 C04       -193.8470   -95.6000    12.9820 c3         1 LWL       0.075900
      5 C05        195.7390   -94.2800    11.9120 c3         1 LWL      -0.005400
      6 C06       -195.0150   -93.8380    10.6260 c          1 LWL       0.602100
      7 C11        193.9940   -94.2350     6.1400 ca         1 LWL       0.286700
      8 C12       -194.7960   -94.2610     4.9780 ca         1 LWL      -0.136000
      9 C13        194.2000   -94.1100     3.7150 ca         1 LWL      -0.071000
     10 C14       -192.8090   -93.9390     3.6550 ca         1 LWL      -0.133000
     11 C15        192.0710   -93.9250     4.8500 ca         1 LWL       0.341900
     12 N02       -194.9000   -94.5000    13.2010 n4         1 LWL      -0.491000
     13 N08        194.6710   -94.8730     9.7600 ns         1 LWL      -0.270900
     14 N09       -193.9840   -94.6840     8.5720 n2         1 LWL      -0.390300
     15 N16        192.6420   -94.0700     6.0700 nb         1 LWL      -0.628000
     16 O07       -194.7640   -92.6610    10.3940 o          1 LWL      -0.491100
     17 H1         195.7410   -94.3770     7.4960 h4         1 LWL      -0.009200
     18 H3        -195.2560   -95.0770    15.2520 hx         1 LWL       0.101256
     19 H4         196.5830   -94.1460    14.5080 hx         1 LWL       0.101256
     20 H5        -196.3390   -95.8580    14.0690 hx         1 LWL       0.101256
     21 H6         193.6290   -93.3520    14.5190 hx         1 LWL       0.101256
     22 H7        -193.5170   -92.8860    12.8010 hx         1 LWL       0.101256
     23 H8         194.9440   -92.4140    13.7610 hx         1 LWL       0.101256
     24 H9        -193.2850   -95.7480    13.9070 hx         1 LWL       0.101256
     25 H10        194.3470   -96.5320    12.7090 hx         1 LWL       0.101256
     26 H11       -193.1640   -95.2990    12.1860 hx         1 LWL       0.101256
     27 H12        196.4800   -93.5080    12.1200 hx         1 LWL       0.109700
     28 H13       -196.2700   -95.2050    11.6830 hx         1 LWL       0.109700
     29 H14        195.8720   -94.3980     5.0600 ha         1 LWL       0.123000
     30 H15       -194.8010   -94.1270     2.8070 ha         1 LWL       0.133000
     31 H16        192.3020   -93.8180     2.7020 ha         1 LWL       0.138000
     32 H17       -190.9890   -93.7950     4.8320 h4         1 LWL       0.034100
     33 H18        194.9330   -95.8090    10.0560 hn         1 LWL       0.301500
@<TRIPOS>BOND
     1     1     7 1   
     2     1    14 2   
     3     1    17 1   
     4     2    12 1   
     5     2    18 1   
     6     2    19 1   
     7     2    20 1   
     8     3    12 1   
     9     3    21 1   
    10     3    22 1   
    11     3    23 1   
    12     4    12 1   
    13     4    24 1   
    14     4    25 1   
    15     4    26 1   
    16     5     6 1   
    17     5    12 1   
    18     5    27 1   
    19     5    28 1   
    20     6    13 1   
    21     6    16 2   
    22     7     8 ar  
    23     7    15 ar  
    24     8     9 ar  
    25     8    29 1   
    26     9    10 ar  
    27     9    30 1   
    28    10    11 ar  
    29    10    31 1   
    30    11    15 ar  
    31    11    32 1   
    32    13    14 1   
    33    13    33 1   
@<TRIPOS>SUBSTRUCTURE
     1 LWL         1 TEMP              0 ****  ****    0 ROOT
