@<TRIPOS>MOLECULE
LWL
   33    33     1     0     0
SMALL
bcc


@<TRIPOS>ATOM
      1 C10       -194.7490   -94.5560     7.5060 ce         1 LWL       0.307200
      2 C01       -195.8210   -94.8950    14.1550 c3         1 LWL       0.104100
      3 C03       -193.8290   -93.5860    13.7040 c3         1 LWL       0.104100
      4 C04       -194.1710   -95.7220    12.5760 c3         1 LWL       0.104100
      5 C05       -195.6270   -93.8240    12.0030 c3         1 LWL       0.022800
      6 C06       -194.7850   -93.4410    10.7940 c          1 LWL       0.669100
      7 C11       -194.0930   -94.3110     6.2180 ca         1 LWL       0.352000
      8 C12       -194.4500   -95.0980     5.1280 ca         1 LWL      -0.219300
      9 C13       -193.8280   -94.8710     3.9090 ca         1 LWL      -0.089000
     10 C14       -192.8770   -93.8680     3.8260 ca         1 LWL      -0.216300
     11 C15       -192.5920   -93.1350     4.9740 ca         1 LWL       0.407200
     12 N02       -194.8450   -94.4970    13.0940 n4         1 LWL      -0.603800
     13 N08       -195.0880   -94.1470     9.6780 ns         1 LWL      -0.337900
     14 N09       -194.4470   -93.8690     8.5310 n2         1 LWL      -0.390300
     15 N16       -193.1780   -93.3440     6.1400 nb         1 LWL      -0.628000
     16 O07       -193.9470   -92.5670    10.8380 o          1 LWL      -0.491100
     17 H1        -195.4970   -95.3510     7.5300 h4         1 LWL      -0.009200
     18 H3        -195.2770   -95.3730    14.9640 hx         1 LWL       0.101256
     19 H4        -196.3270   -94.0060    14.5230 hx         1 LWL       0.101256
     20 H5        -196.5430   -95.5880    13.7320 hx         1 LWL       0.101256
     21 H6        -193.3880   -94.0970    14.5550 hx         1 LWL       0.101256
     22 H7        -193.0580   -93.3540    12.9790 hx         1 LWL       0.101256
     23 H8        -194.3240   -92.6760    14.0320 hx         1 LWL       0.101256
     24 H9        -193.7070   -96.2390    13.4120 hx         1 LWL       0.101256
     25 H10       -194.9110   -96.3680    12.1090 hx         1 LWL       0.101256
     26 H11       -193.4040   -95.4480    11.8560 hx         1 LWL       0.101256
     27 H12       -196.0640   -92.9180    12.4250 hx         1 LWL       0.109700
     28 H13       -196.4390   -94.5010    11.7390 hx         1 LWL       0.109700
     29 H14       -195.1990   -95.8720     5.2340 ha         1 LWL       0.141000
     30 H15       -194.0830   -95.4670     3.0430 ha         1 LWL       0.151000
     31 H16       -192.3650   -93.6500     2.8990 ha         1 LWL       0.156000
     32 H17       -191.8530   -92.3420     4.9410 h4         1 LWL       0.034100
     33 H18       -195.7990   -94.8720     9.7030 hn         1 LWL       0.301500
@<TRIPOS>BOND
     1     1     7 1   
     2     1    14 2   
     3     1    17 1   
     4     2    12 1   
     5     2    18 1   
     6     2    19 1   
     7     2    20 1   
     8     3    12 1   
     9     3    21 1   
    10     3    22 1   
    11     3    23 1   
    12     4    12 1   
    13     4    24 1   
    14     4    25 1   
    15     4    26 1   
    16     5     6 1   
    17     5    12 1   
    18     5    27 1   
    19     5    28 1   
    20     6    13 1   
    21     6    16 2   
    22     7     8 ar  
    23     7    15 ar  
    24     8     9 ar  
    25     8    29 1   
    26     9    10 ar  
    27     9    30 1   
    28    10    11 ar  
    29    10    31 1   
    30    11    15 ar  
    31    11    32 1   
    32    13    14 1   
    33    13    33 1   
@<TRIPOS>SUBSTRUCTURE
     1 LWL         1 TEMP              0 ****  ****    0 ROOT
