@<TRIPOS>MOLECULE
LWN
   39    41     1     0     0
SMALL
bcc


@<TRIPOS>ATOM
      1 C4         -35.5030   -39.5450    28.7980 ca         1 LWN       0.980900
      2 C14        -32.1350   -38.4810    29.7630 ca         1 LWN      -0.213000
      3 C5         -37.2850   -40.8490    28.7170 ca         1 LWN       0.523800
      4 C6         -38.8020   -41.1380    27.1190 cc         1 LWN       0.400800
      5 C11        -32.3430   -36.5170    27.8230 ca         1 LWN      -0.123000
      6 C7         -37.6270   -40.4180    27.4330 ca         1 LWN      -0.551500
      7 C9         -33.3530   -38.3000    29.0980 ca         1 LWN       0.200600
      8 C10        -33.4470   -37.2980    28.1300 ca         1 LWN      -0.137000
      9 C12        -31.1480   -36.7060    28.4820 ca         1 LWN       0.061900
     10 C13        -31.0560   -37.6840    29.4560 ca         1 LWN       0.128900
     11 N1         -35.7160   -39.0340    27.5820 nb         1 LWN      -0.874000
     12 N2         -36.2380   -40.4470    29.4370 nb         1 LWN      -0.819000
     13 C3         -36.7580   -39.4550    26.8760 ca         1 LWN       0.820200
     14 N3         -38.2150   -41.7470    29.0810 na         1 LWN       0.002200
     15 F1         -30.0750   -35.9560    28.1970 f          1 LWN      -0.128900
     16 F          -29.8960   -37.8620    30.0970 f          1 LWN      -0.125900
     17 N5         -34.4030   -39.1210    29.4900 nu         1 LWN      -0.736300
     18 N4         -39.1360   -41.9240    28.1100 nd         1 LWN      -0.526100
     19 N          -36.9460   -38.9260    25.6620 nu         1 LWN      -0.854900
     20 C2         -36.0500   -37.9550    25.1120 c3         1 LWN       0.175800
     21 C1         -34.6690   -38.5230    24.8450 c          1 LWN       0.629100
     22 O1         -34.4220   -39.6920    24.7170 o          1 LWN      -0.518000
     23 O          -33.7810   -37.5500    24.7290 os         1 LWN      -0.423900
     24 C          -32.4310   -37.9170    24.4400 c3         1 LWN       0.128700
     25 H2         -39.4010   -41.1110    26.2210 h4         1 LWN       0.045800
     26 H3         -32.4200   -35.7460    27.0680 ha         1 LWN       0.153000
     27 H7         -34.3760   -37.1220    27.6160 ha         1 LWN       0.168000
     28 H8         -34.2630   -39.6230    30.3540 hn         1 LWN       0.457800
     29 H9         -37.6840   -39.2860    25.0810 hn         1 LWN       0.458800
     30 H10        -35.9730   -37.0760    25.7540 h1         1 LWN       0.080700
     31 H11        -36.4660   -37.6150    24.1620 h1         1 LWN       0.080700
     32 H12        -31.8820   -36.9850    24.3440 h1         1 LWN       0.051367
     33 H13        -32.0030   -38.5060    25.2500 h1         1 LWN       0.051367
     34 H14        -32.3610   -38.4760    23.5070 h1         1 LWN       0.051367
     35 C8         -38.2810   -42.4750    30.3230 c3         1 LWN       0.056600
     36 H1         -32.0240   -39.2480    30.5190 ha         1 LWN       0.153000
     37 H4         -39.1710   -43.0950    30.3050 h1         1 LWN       0.057367
     38 H5         -37.4060   -43.1120    30.4460 h1         1 LWN       0.057367
     39 H6         -38.3410   -41.7920    31.1690 h1         1 LWN       0.057367
@<TRIPOS>BOND
     1     1    11 ar  
     2     1    12 ar  
     3     1    17 1   
     4     2     7 ar  
     5     2    10 ar  
     6     2    36 1   
     7     3     6 ar  
     8     3    12 ar  
     9     3    14 1   
    10     4     6 1   
    11     4    18 2   
    12     4    25 1   
    13     5     8 ar  
    14     5     9 ar  
    15     5    26 1   
    16     6    13 ar  
    17     7     8 ar  
    18     7    17 1   
    19     8    27 1   
    20     9    10 ar  
    21     9    15 1   
    22    10    16 1   
    23    11    13 ar  
    24    13    19 1   
    25    14    18 1   
    26    14    35 1   
    27    17    28 1   
    28    19    20 1   
    29    19    29 1   
    30    20    21 1   
    31    20    30 1   
    32    20    31 1   
    33    21    22 2   
    34    21    23 1   
    35    23    24 1   
    36    24    32 1   
    37    24    33 1   
    38    24    34 1   
    39    35    37 1   
    40    35    38 1   
    41    35    39 1   
@<TRIPOS>SUBSTRUCTURE
     1 LWN         1 TEMP              0 ****  ****    0 ROOT
