@<TRIPOS>MOLECULE
LWN
   39    41     1     0     0
SMALL
No Charge or Current Charge


@<TRIPOS>ATOM
      1 C4         -35.4390   -39.5750    28.7470 ca         1 LWN       0.454900
      2 C14        -31.9650   -38.5740    29.6050 ca         1 LWN      -0.195000
      3 C5         -37.3090   -40.8630    28.7900 ca         1 LWN       0.195500
      4 C6         -38.8250   -41.0840    27.1410 cc         1 LWN       0.400800
      5 C11        -32.3520   -36.2940    28.0010 ca         1 LWN      -0.105000
      6 C7         -37.6000   -40.4450    27.5290 ca         1 LWN      -0.420900
      7 C9         -33.2390   -38.3040    29.0830 ca         1 LWN       0.339000
      8 C10        -33.4300   -37.1520    28.2910 ca         1 LWN      -0.119000
      9 C12        -31.0780   -36.5830    28.5110 ca         1 LWN       0.097000
     10 C13        -30.8870   -37.7210    29.3160 ca         1 LWN       0.164000
     11 N1         -35.6520   -39.1180    27.4980 nb         1 LWN      -0.348000
     12 N2         -36.2080   -40.4400    29.4370 nb         1 LWN      -0.293000
     13 C3         -36.7550   -39.5610    26.8790 ca         1 LWN       0.491900
     14 N3         -38.3400   -41.7220    29.1180 na         1 LWN      -0.027100
     15 F1         -30.0420   -35.7590    28.2290 f          1 LWN      -0.164000
     16 F          -29.6630   -38.0040    29.8180 f          1 LWN      -0.161000
     17 N5         -34.2810   -39.1810    29.3960 nu         1 LWN      -0.929900
     18 N4         -39.2940   -41.8770    28.1140 nd         1 LWN      -0.526100
     19 N          -37.0070   -39.1150    25.5940 nu         1 LWN      -0.910100
     20 C2         -36.1790   -38.1430    24.8010 c3         1 LWN       0.175800
     21 C1         -34.6970   -38.5800    24.5710 c          1 LWN       0.580100
     22 O1         -34.3570   -39.6970    24.1950 o          1 LWN      -0.469000
     23 O          -33.8140   -37.5670    24.8650 os         1 LWN      -0.447100
     24 C          -32.4050   -37.8410    24.7510 c3         1 LWN       0.151900
     25 H2         -39.4000   -41.0260    26.2250 h4         1 LWN       0.045800
     26 H3         -32.5060   -35.4100    27.3870 ha         1 LWN       0.135000
     27 H7         -34.4150   -36.9070    27.9080 ha         1 LWN       0.150000
     28 H8         -34.1070   -39.7450    30.2260 hn         1 LWN       0.513000
     29 H9         -37.8270   -39.5190    25.1400 hn         1 LWN       0.514000
     30 H10        -36.1550   -37.1720    25.3130 h1         1 LWN       0.080700
     31 H11        -36.6180   -37.9720    23.8100 h1         1 LWN       0.080700
     32 H12        -31.8200   -36.9490    25.0090 h1         1 LWN       0.051367
     33 H13        -32.1080   -38.6490    25.4320 h1         1 LWN       0.051367
     34 H14        -32.1430   -38.1350    23.7260 h1         1 LWN       0.051367
     35 C8         -38.4280   -42.4150    30.4140 c3         1 LWN       0.085900
     36 H1         -31.8000   -39.4500    30.2240 ha         1 LWN       0.135000
     37 H4         -39.3300   -43.0380    30.4470 h1         1 LWN       0.057367
     38 H5         -37.5450   -43.0510    30.5500 h1         1 LWN       0.057367
     39 H6         -38.4690   -41.6760    31.2230 h1         1 LWN       0.057367
@<TRIPOS>BOND
     1     1    11 ar  
     2     1    12 ar  
     3     1    17 1   
     4     2     7 ar  
     5     2    10 ar  
     6     2    36 1   
     7     3     6 ar  
     8     3    12 ar  
     9     3    14 1   
    10     4     6 1   
    11     4    18 2   
    12     4    25 1   
    13     5     8 ar  
    14     5     9 ar  
    15     5    26 1   
    16     6    13 ar  
    17     7     8 ar  
    18     7    17 1   
    19     8    27 1   
    20     9    10 ar  
    21     9    15 1   
    22    10    16 1   
    23    11    13 ar  
    24    13    19 1   
    25    14    18 1   
    26    14    35 1   
    27    17    28 1   
    28    19    20 1   
    29    19    29 1   
    30    20    21 1   
    31    20    30 1   
    32    20    31 1   
    33    21    22 2   
    34    21    23 1   
    35    23    24 1   
    36    24    32 1   
    37    24    33 1   
    38    24    34 1   
    39    35    37 1   
    40    35    38 1   
    41    35    39 1   
@<TRIPOS>SUBSTRUCTURE
     1 LWN         1 TEMP              0 ****  ****    0 ROOT
