@<TRIPOS>MOLECULE
LWO
   46    49     1     0     0
SMALL
abcg2


@<TRIPOS>ATOM
      1 N1           9.6530    -0.2670    22.6950 n          1 LWO      -0.232400
      2 N3           7.5250    -0.6660    18.6460 nc         1 LWO      -0.149400
      3 C4           9.4000    -1.4680    23.4370 ca         1 LWO      -0.127000
      4 C5           9.9780    -2.6810    23.0630 ca         1 LWO      -0.062500
      5 C6           9.7320    -3.8290    23.7930 ca         1 LWO      -0.183500
      6 C7          10.5910     0.7000    23.2670 c3         1 LWO       0.173300
      7 C8          12.0360     0.3800    22.9890 cc         1 LWO      -0.125300
      8 C10         14.3340     0.4770    23.3600 cd         1 LWO      -0.236000
      9 C13          8.1030    -1.0660    20.9770 c3         1 LWO       0.010600
     10 C15          4.6430     1.3920    18.5640 ca         1 LWO      -0.027000
     11 C17          4.3580     1.5370    20.9830 ca         1 LWO      -0.077000
     12 S           14.2110    -0.4730    21.9300 ss         1 LWO       0.188000
     13 N2           7.2470    -0.5170    19.9590 na         1 LWO       0.064600
     14 C1           8.9110    -3.8000    24.9360 ca         1 LWO       0.329000
     15 C11         12.4940    -0.3560    21.9330 cd         1 LWO      -0.219000
     16 C18          5.4600     0.7440    21.2380 ca         1 LWO      -0.113000
     17 C2           8.3340    -2.5700    25.3050 ca         1 LWO      -0.183500
     18 C16          3.9540     1.8560    19.6660 ca         1 LWO      -0.140000
     19 C9          13.1030     0.8570    23.8100 cc         1 LWO      -0.126000
     20 C12          9.0870    -0.0080    21.4960 c          1 LWO       0.580100
     21 C19          6.1520     0.2750    20.1180 ca         1 LWO      -0.063200
     22 C14          5.7650     0.5880    18.8050 ca         1 LWO       0.016400
     23 C            7.6950    -5.0490    26.6910 c3         1 LWO       0.204100
     24 O            9.3280     0.9970    20.8350 o          1 LWO      -0.569100
     25 C3           8.5820    -1.4270    24.5610 ca         1 LWO      -0.062500
     26 N4           6.6500    -0.0210    17.9450 nd         1 LWO      -0.217400
     27 H1          10.6170    -2.7230    22.1910 ha         1 LWO       0.120000
     28 H2          10.1820    -4.7680    23.4900 ha         1 LWO       0.118500
     29 H3          10.3410     1.6820    22.8670 h1         1 LWO       0.070200
     30 H4          10.4240     0.7270    24.3440 h1         1 LWO       0.070200
     31 H5          15.2990     0.6920    23.7890 h4         1 LWO       0.150000
     32 H6           7.4880    -1.4640    21.7820 h1         1 LWO       0.089700
     33 H7           8.6590    -1.8940    20.5400 h1         1 LWO       0.089700
     34 H9           3.7850     1.9280    21.8140 ha         1 LWO       0.114000
     35 H11         11.9200    -0.8380    21.1590 h4         1 LWO       0.151000
     36 H12          5.7700     0.5020    22.2460 ha         1 LWO       0.121000
     37 H13          7.6890    -2.5090    26.1700 ha         1 LWO       0.118500
     38 H14          3.0820     2.4820    19.5260 ha         1 LWO       0.117000
     39 H15         12.9510     1.4540    24.6990 ha         1 LWO       0.132000
     40 H16          7.6900    -6.0690    27.0690 h1         1 LWO       0.038700
     41 H17          7.9060    -4.3780    27.5260 h1         1 LWO       0.038700
     42 H18          6.6940    -4.8110    26.3090 h1         1 LWO       0.038700
     43 H19          8.1260    -0.4880    24.8520 ha         1 LWO       0.120000
     44 N            8.7180    -4.9430    25.6700 nu         1 LWO      -0.960200
     45 H8           4.3360     1.6340    17.5550 ha         1 LWO       0.133000
     46 H10          8.9630    -5.8030    25.2050 hn         1 LWO       0.477000
@<TRIPOS>BOND
     1     1     3 1   
     2     1     6 1   
     3     1    20 1   
     4     2    13 1   
     5     2    26 2   
     6     3     4 ar  
     7     3    25 ar  
     8     4     5 ar  
     9     4    27 1   
    10     5    14 ar  
    11     5    28 1   
    12     6     7 1   
    13     6    29 1   
    14     6    30 1   
    15     7    15 2   
    16     7    19 1   
    17     8    12 1   
    18     8    19 2   
    19     8    31 1   
    20     9    13 1   
    21     9    20 1   
    22     9    32 1   
    23     9    33 1   
    24    10    18 ar  
    25    10    22 ar  
    26    10    45 1   
    27    11    16 ar  
    28    11    18 ar  
    29    11    34 1   
    30    12    15 1   
    31    13    21 1   
    32    14    17 ar  
    33    14    44 1   
    34    15    35 1   
    35    16    21 ar  
    36    16    36 1   
    37    17    25 ar  
    38    17    37 1   
    39    18    38 1   
    40    19    39 1   
    41    20    24 2   
    42    21    22 ar  
    43    22    26 1   
    44    23    40 1   
    45    23    41 1   
    46    23    42 1   
    47    23    44 1   
    48    25    43 1   
    49    44    46 1   
@<TRIPOS>SUBSTRUCTURE
     1 LWO         1 TEMP              0 ****  ****    0 ROOT
