@<TRIPOS>MOLECULE
LWO
   46    49     1     0     0
SMALL
No Charge or Current Charge


@<TRIPOS>ATOM
      1 N1           9.7310    -0.3080    22.5010 n          1 LWO      -0.232400
      2 N3           7.3360    -1.0240    18.3130 nc         1 LWO      -0.149400
      3 C4           9.4830    -1.4260    23.3790 ca         1 LWO      -0.127000
      4 C5           9.7380    -2.7460    22.9510 ca         1 LWO      -0.062500
      5 C6           9.3590    -3.8410    23.7480 ca         1 LWO      -0.183500
      6 C7          10.4490     0.8600    23.0670 c3         1 LWO       0.173300
      7 C8          11.9430     0.7070    22.9130 cc         1 LWO      -0.125300
      8 C10         14.0340    -0.1880    23.4870 cd         1 LWO      -0.236000
      9 C13          8.3540    -1.3100    20.6120 c3         1 LWO       0.010600
     10 C15          4.5470     1.1350    18.8000 ca         1 LWO      -0.027000
     11 C17          4.8010     1.4560    21.2220 ca         1 LWO      -0.077000
     12 S           14.4390     0.8800    22.1370 ss         1 LWO       0.188000
     13 N2           7.3720    -0.7540    19.6720 na         1 LWO       0.064600
     14 C1           8.6800    -3.6390    24.9570 ca         1 LWO       0.329000
     15 C11         12.7350     1.3400    21.9860 cd         1 LWO      -0.219000
     16 C18          5.9380     0.6210    21.2260 ca         1 LWO      -0.113000
     17 C2           8.3630    -2.3300    25.3560 ca         1 LWO      -0.183500
     18 C16          4.1090     1.7120    20.0130 ca         1 LWO      -0.140000
     19 C9          12.6920    -0.1560    23.7560 cc         1 LWO      -0.126000
     20 C12          9.3530    -0.2600    21.1300 c          1 LWO       0.580100
     21 C19          6.3370     0.0710    19.9980 ca         1 LWO      -0.063200
     22 C14          5.6800     0.3090    18.8340 ca         1 LWO       0.016400
     23 C            7.6290    -4.7480    27.0290 c3         1 LWO       0.204100
     24 O            9.7630     0.6280    20.3870 o          1 LWO      -0.569100
     25 C3           8.7410    -1.2330    24.5630 ca         1 LWO      -0.062500
     26 N4           6.2980    -0.3670    17.7900 nd         1 LWO      -0.217400
     27 H1          10.2620    -2.9280    22.0150 ha         1 LWO       0.120000
     28 H2           9.5920    -4.8490    23.4160 ha         1 LWO       0.118500
     29 H3          10.1160     1.7840    22.5770 h1         1 LWO       0.070200
     30 H4          10.2140     0.9630    24.1330 h1         1 LWO       0.070200
     31 H5          14.8070    -0.7630    23.9830 h4         1 LWO       0.150000
     32 H6           7.8010    -1.7320    21.4570 h1         1 LWO       0.089700
     33 H7           8.9190    -2.1140    20.1280 h1         1 LWO       0.089700
     34 H9           4.4560     1.9050    22.1510 ha         1 LWO       0.114000
     35 H11         12.4310     2.0430    21.2200 h4         1 LWO       0.151000
     36 H12          6.4800     0.4150    22.1470 ha         1 LWO       0.121000
     37 H13          7.8100    -2.1530    26.2730 ha         1 LWO       0.118500
     38 H14          3.2330     2.3580    20.0180 ha         1 LWO       0.117000
     39 H15         12.2230    -0.7410    24.5440 ha         1 LWO       0.132000
     40 H16          7.4840    -5.7770    27.3870 h1         1 LWO       0.038700
     41 H17          8.2220    -4.2030    27.7760 h1         1 LWO       0.038700
     42 H18          6.6440    -4.2690    26.9480 h1         1 LWO       0.038700
     43 H19          8.4480    -0.2320    24.8730 ha         1 LWO       0.120000
     44 N            8.3140    -4.7480    25.7230 nu         1 LWO      -0.960200
     45 H8           4.0230     1.3250    17.8660 ha         1 LWO       0.133000
     46 H10          8.5840    -5.6570    25.3420 hn         1 LWO       0.477000
@<TRIPOS>BOND
     1     1     3 1   
     2     1     6 1   
     3     1    20 1   
     4     2    13 1   
     5     2    26 2   
     6     3     4 ar  
     7     3    25 ar  
     8     4     5 ar  
     9     4    27 1   
    10     5    14 ar  
    11     5    28 1   
    12     6     7 1   
    13     6    29 1   
    14     6    30 1   
    15     7    15 2   
    16     7    19 1   
    17     8    12 1   
    18     8    19 2   
    19     8    31 1   
    20     9    13 1   
    21     9    20 1   
    22     9    32 1   
    23     9    33 1   
    24    10    18 ar  
    25    10    22 ar  
    26    10    45 1   
    27    11    16 ar  
    28    11    18 ar  
    29    11    34 1   
    30    12    15 1   
    31    13    21 1   
    32    14    17 ar  
    33    14    44 1   
    34    15    35 1   
    35    16    21 ar  
    36    16    36 1   
    37    17    25 ar  
    38    17    37 1   
    39    18    38 1   
    40    19    39 1   
    41    20    24 2   
    42    21    22 ar  
    43    22    26 1   
    44    23    40 1   
    45    23    41 1   
    46    23    42 1   
    47    23    44 1   
    48    25    43 1   
    49    44    46 1   
@<TRIPOS>SUBSTRUCTURE
     1 LWO         1 TEMP              0 ****  ****    0 ROOT
