@<TRIPOS>MOLECULE
LWQ
   57    61     1     0     0
SMALL
abcg2


@<TRIPOS>ATOM
      1 N1          -0.0100     2.6520    -0.0080 nb         1 LWQ      -0.717000
      2 N3          -2.2240     1.1900     0.0670 ns         1 LWQ      -0.136500
      3 C4           1.1820     4.7090    -0.1010 ca         1 LWQ      -0.053000
      4 C5          -0.0100     5.4090    -0.0110 ca         1 LWQ      -0.065000
      5 C8          -3.1780     0.1880     0.0960 ca         1 LWQ      -0.048500
      6 C10         -2.7000    -1.1150    -0.0950 ca         1 LWQ      -0.040300
      7 C13         -4.5310     0.3510     0.2960 ca         1 LWQ       0.005500
      8 C15         -7.0270    -3.0160     0.2730 ca         1 LWQ      -0.011000
      9 C17         -6.7660    -0.6370     0.4910 ca         1 LWQ      -0.058000
     10 C20          4.8240    -2.0620    -0.0740 ca         1 LWQ      -0.048000
     11 C21          2.6820    -1.1130     0.1010 ca         1 LWQ      -0.040300
     12 C22          6.7470    -0.6360    -0.4930 ca         1 LWQ      -0.058000
     13 C24          7.0110    -3.0130    -0.2500 ca         1 LWQ      -0.011000
     14 C1          -1.2020     4.7090     0.0820 ca         1 LWQ      -0.053000
     15 C2          -1.1490     3.3220     0.0750 ca         1 LWQ       0.281500
     16 C3           1.1290     3.3220    -0.0920 ca         1 LWQ       0.281500
     17 C9           3.1590     0.1890    -0.1040 ca         1 LWQ      -0.048500
     18 N4          -3.4860    -2.1730    -0.0960 na         1 LWQ       0.082300
     19 C11         -4.8410    -2.0640     0.0880 ca         1 LWQ      -0.048000
     20 C12         -5.3740    -0.7720     0.2920 ca         1 LWQ      -0.048000
     21 C14         -5.6810    -3.1890     0.0790 ca         1 LWQ      -0.142500
     22 C16         -7.5760    -1.7370     0.4810 ca         1 LWQ      -0.069000
     23 C18          4.5110     0.3510    -0.3070 ca         1 LWQ       0.005500
     24 C19          5.3550    -0.7710    -0.2920 ca         1 LWQ      -0.048000
     25 N5           3.4690    -2.1700     0.1120 na         1 LWQ       0.082300
     26 C23          7.5580    -1.7350    -0.4720 ca         1 LWQ      -0.069000
     27 C25          5.6660    -3.1850    -0.0540 ca         1 LWQ      -0.142500
     28 C27          2.8710    -3.4910     0.3320 c3         1 LWQ       0.017900
     29 H5          -1.2620     0.9070    -0.0620 hn         1 LWQ       0.177000
     30 H2           2.1270     5.2260    -0.1760 ha         1 LWQ       0.171000
     31 H3          -0.0100     6.4900    -0.0120 ha         1 LWQ       0.162000
     32 H6          -1.6470    -1.2990    -0.2500 h4         1 LWQ       0.149000
     33 H7          -4.9660     1.3250     0.4570 ha         1 LWQ       0.193500
     34 H9          -7.6770    -3.8800     0.2660 ha         1 LWQ       0.158000
     35 H11         -7.1750     0.3520     0.6520 ha         1 LWQ       0.158000
     36 H14          7.1540     0.3510    -0.6640 ha         1 LWQ       0.158000
     37 H16          7.6620    -3.8760    -0.2350 ha         1 LWQ       0.158000
     38 H1          -2.1480     5.2260     0.1550 ha         1 LWQ       0.171000
     39 H8          -5.2900    -4.1830    -0.0810 ha         1 LWQ       0.145000
     40 H10         -8.6410    -1.6300     0.6310 ha         1 LWQ       0.163000
     41 H12          4.9440     1.3240    -0.4790 ha         1 LWQ       0.193500
     42 H15          8.6230    -1.6290    -0.6240 ha         1 LWQ       0.163000
     43 H17          5.2760    -4.1780     0.1160 ha         1 LWQ       0.145000
     44 H23          3.2810    -3.9310     1.2370 h1         1 LWQ       0.089033
     45 H22          1.7990    -3.3800     0.4450 h1         1 LWQ       0.089033
     46 H21          3.0760    -4.1320    -0.5210 h1         1 LWQ       0.089033
     47 C6          -2.4180     2.5280     0.1630 c          1 LWQ       0.525600
     48 C7           2.3980     2.5280    -0.1780 c          1 LWQ       0.525600
     49 C26         -2.8860    -3.4950    -0.3030 c3         1 LWQ       0.017900
     50 O1          -3.4980     3.0660     0.3000 o          1 LWQ      -0.528100
     51 N2           2.2040     1.1900    -0.0840 ns         1 LWQ      -0.136500
     52 O2           3.4780     3.0650    -0.3120 o          1 LWQ      -0.528100
     53 H13          1.6290    -1.2970     0.2600 h4         1 LWQ       0.149000
     54 H19         -3.0920    -4.1290     0.5550 h1         1 LWQ       0.089033
     55 H18         -3.2940    -3.9440    -1.2050 h1         1 LWQ       0.089033
     56 H20         -1.8140    -3.3840    -0.4140 h1         1 LWQ       0.089033
     57 H4           1.2410     0.9070     0.0430 hn         1 LWQ       0.177000
@<TRIPOS>BOND
     1     1    15 ar  
     2     1    16 ar  
     3     2     5 1   
     4     2    29 1   
     5     2    47 1   
     6     3     4 ar  
     7     3    16 ar  
     8     3    30 1   
     9     4    14 ar  
    10     4    31 1   
    11     5     6 ar  
    12     5     7 ar  
    13     6    18 2   
    14     6    32 1   
    15     7    20 ar  
    16     7    33 1   
    17     8    21 ar  
    18     8    22 ar  
    19     8    34 1   
    20     9    20 ar  
    21     9    22 ar  
    22     9    35 1   
    23    10    24 ar  
    24    10    25 1   
    25    10    27 ar  
    26    11    17 ar  
    27    11    25 2   
    28    11    53 1   
    29    12    24 ar  
    30    12    26 ar  
    31    12    36 1   
    32    13    26 ar  
    33    13    27 ar  
    34    13    37 1   
    35    14    15 ar  
    36    14    38 1   
    37    15    47 1   
    38    16    48 1   
    39    17    23 ar  
    40    17    51 1   
    41    18    19 1   
    42    18    49 1   
    43    19    20 ar  
    44    19    21 ar  
    45    21    39 1   
    46    22    40 1   
    47    23    24 ar  
    48    23    41 1   
    49    25    28 1   
    50    26    42 1   
    51    27    43 1   
    52    28    44 1   
    53    28    45 1   
    54    28    46 1   
    55    47    50 2   
    56    48    51 1   
    57    48    52 2   
    58    49    54 1   
    59    49    55 1   
    60    49    56 1   
    61    51    57 1   
@<TRIPOS>SUBSTRUCTURE
     1 LWQ         1 TEMP              0 ****  ****    0 ROOT
