@<TRIPOS>MOLECULE
LWQ
   57    61     1     0     0
SMALL
No Charge or Current Charge


@<TRIPOS>ATOM
      1 N1          -0.0100     2.6850    -0.0080 nb         1 LWQ      -0.717000
      2 N3          -2.3650     1.2180     0.0890 ns         1 LWQ      -0.136500
      3 C4           1.1960     4.7870    -0.0630 ca         1 LWQ      -0.053000
      4 C5          -0.0110     5.5030    -0.0180 ca         1 LWQ      -0.065000
      5 C8          -3.3060     0.1470     0.1300 ca         1 LWQ      -0.048500
      6 C10         -2.8010    -1.1650     0.1080 ca         1 LWQ      -0.040300
      7 C13         -4.7040     0.3320     0.1910 ca         1 LWQ       0.005500
      8 C15         -7.3230    -2.9800     0.3060 ca         1 LWQ      -0.011000
      9 C17         -6.9570    -0.5780     0.2890 ca         1 LWQ      -0.058000
     10 C20          5.0180    -2.0970    -0.1910 ca         1 LWQ      -0.048000
     11 C21          2.7830    -1.1640    -0.1000 ca         1 LWQ      -0.040300
     12 C22          6.9390    -0.5760    -0.2830 ca         1 LWQ      -0.058000
     13 C24          7.3060    -2.9770    -0.2840 ca         1 LWQ      -0.011000
     14 C1          -1.2180     4.7870     0.0320 ca         1 LWQ      -0.053000
     15 C2          -1.1940     3.3760     0.0360 ca         1 LWQ       0.281500
     16 C3           1.1730     3.3760    -0.0570 ca         1 LWQ       0.281500
     17 C9           3.2870     0.1490    -0.1300 ca         1 LWQ      -0.048500
     18 N4          -3.6390    -2.2840     0.1450 na         1 LWQ       0.082300
     19 C11         -5.0350    -2.0980     0.2060 ca         1 LWQ      -0.048000
     20 C12         -5.5640    -0.7830     0.2290 ca         1 LWQ      -0.048000
     21 C14         -5.9350    -3.1930     0.2450 ca         1 LWQ      -0.142500
     22 C16         -7.8340    -1.6740     0.3280 ca         1 LWQ      -0.069000
     23 C18          4.6850     0.3340    -0.1910 ca         1 LWQ       0.005500
     24 C19          5.5460    -0.7810    -0.2210 ca         1 LWQ      -0.048000
     25 N5           3.6220    -2.2820    -0.1300 na         1 LWQ       0.082300
     26 C23          7.8160    -1.6710    -0.3140 ca         1 LWQ      -0.069000
     27 C25          5.9180    -3.1910    -0.2230 ca         1 LWQ      -0.142500
     28 C27          3.0230    -3.6320    -0.0950 c3         1 LWQ       0.017900
     29 H5          -1.3970     0.9220     0.0510 hn         1 LWQ       0.177000
     30 H2           2.1430     5.3220    -0.1020 ha         1 LWQ       0.171000
     31 H3          -0.0110     6.5920    -0.0210 ha         1 LWQ       0.162000
     32 H6          -1.7270    -1.3470     0.0610 h4         1 LWQ       0.149000
     33 H7          -5.1390     1.3260     0.2100 ha         1 LWQ       0.193500
     34 H9          -8.0040    -3.8290     0.3360 ha         1 LWQ       0.158000
     35 H11         -7.3660     0.4310     0.3070 ha         1 LWQ       0.158000
     36 H14          7.3480     0.4330    -0.3060 ha         1 LWQ       0.158000
     37 H16          7.9880    -3.8260    -0.3090 ha         1 LWQ       0.158000
     38 H1          -2.1640     5.3210     0.0680 ha         1 LWQ       0.171000
     39 H8          -5.5790    -4.2210     0.2300 ha         1 LWQ       0.145000
     40 H10         -8.9090    -1.5110     0.3750 ha         1 LWQ       0.163000
     41 H12          5.1200     1.3280    -0.2160 ha         1 LWQ       0.193500
     42 H15          8.8910    -1.5080    -0.3610 ha         1 LWQ       0.163000
     43 H17          5.5640    -4.2190    -0.2020 ha         1 LWQ       0.145000
     44 H23          3.3820    -4.1710     0.7900 h1         1 LWQ       0.089033
     45 H22          1.9290    -3.5690    -0.0470 h1         1 LWQ       0.089033
     46 H21          3.3040    -4.1830    -1.0000 h1         1 LWQ       0.089033
     47 C6          -2.5120     2.6020     0.0910 c          1 LWQ       0.525600
     48 C7           2.4920     2.6030    -0.1070 c          1 LWQ       0.525600
     49 C26         -3.0390    -3.6330     0.1170 c3         1 LWQ       0.017900
     50 O1          -3.6040     3.1640     0.1320 o          1 LWQ      -0.528100
     51 N2           2.3460     1.2190    -0.0960 ns         1 LWQ      -0.136500
     52 O2           3.5840     3.1650    -0.1520 o          1 LWQ      -0.528100
     53 H13          1.7090    -1.3470    -0.0530 h4         1 LWQ       0.149000
     54 H19         -3.3190    -4.1790     1.0260 h1         1 LWQ       0.089033
     55 H18         -3.3990    -4.1780    -0.7640 h1         1 LWQ       0.089033
     56 H20         -1.9460    -3.5700     0.0690 h1         1 LWQ       0.089033
     57 H4           1.3780     0.9230    -0.0560 hn         1 LWQ       0.177000
@<TRIPOS>BOND
     1     1    15 ar  
     2     1    16 ar  
     3     2     5 1   
     4     2    29 1   
     5     2    47 1   
     6     3     4 ar  
     7     3    16 ar  
     8     3    30 1   
     9     4    14 ar  
    10     4    31 1   
    11     5     6 ar  
    12     5     7 ar  
    13     6    18 2   
    14     6    32 1   
    15     7    20 ar  
    16     7    33 1   
    17     8    21 ar  
    18     8    22 ar  
    19     8    34 1   
    20     9    20 ar  
    21     9    22 ar  
    22     9    35 1   
    23    10    24 ar  
    24    10    25 1   
    25    10    27 ar  
    26    11    17 ar  
    27    11    25 2   
    28    11    53 1   
    29    12    24 ar  
    30    12    26 ar  
    31    12    36 1   
    32    13    26 ar  
    33    13    27 ar  
    34    13    37 1   
    35    14    15 ar  
    36    14    38 1   
    37    15    47 1   
    38    16    48 1   
    39    17    23 ar  
    40    17    51 1   
    41    18    19 1   
    42    18    49 1   
    43    19    20 ar  
    44    19    21 ar  
    45    21    39 1   
    46    22    40 1   
    47    23    24 ar  
    48    23    41 1   
    49    25    28 1   
    50    26    42 1   
    51    27    43 1   
    52    28    44 1   
    53    28    45 1   
    54    28    46 1   
    55    47    50 2   
    56    48    51 1   
    57    48    52 2   
    58    49    54 1   
    59    49    55 1   
    60    49    56 1   
    61    51    57 1   
@<TRIPOS>SUBSTRUCTURE
     1 LWQ         1 TEMP              0 ****  ****    0 ROOT
