@<TRIPOS>MOLECULE
LWR
  152   155     1     0     0
SMALL
No Charge or Current Charge


@<TRIPOS>ATOM
      1 C11        -13.7060    16.2640     0.4010 c3         1 LWR      -0.053900
      2 C13        -13.7740    15.0990     3.2480 ce         1 LWR      -0.172000
      3 C14        -13.8000    14.5430     4.4880 cf         1 LWR      -0.176000
      4 C15        -12.7870    14.7490     5.5120 cf         1 LWR      -0.189000
      5 C17        -11.7840    14.2980     7.8170 c3         1 LWR      -0.030500
      6 C18        -11.9140    15.6380     8.5720 c3         1 LWR      -0.085100
      7 C21        -10.2370    11.4400     7.5740 c3         1 LWR      -0.077100
      8 C01        -16.0150     8.3220    -2.8720 c3         1 LWR      -0.083100
      9 C02        -15.5530     9.6340    -2.1700 c6         1 LWR      -0.060700
     10 C03        -16.7730    10.3720    -1.5580 c6         1 LWR      -0.072400
     11 C04        -16.3300    11.6720    -0.8600 c6         1 LWR      -0.105400
     12 C05        -15.5350    12.5800    -1.8310 c6         1 LWR       0.182300
     13 C06        -14.8040    13.7410    -1.1000 c3         1 LWR      -0.069400
     14 C07        -15.6310    14.6430    -0.1540 c3         1 LWR       0.205500
     15 C10        -14.7210    15.2480     0.9200 c2         1 LWR      -0.126400
     16 C12        -14.7380    14.7700     2.1890 ce         1 LWR      -0.186000
     17 C16        -12.8500    14.1910     6.7410 c2         1 LWR      -0.200200
     18 C19        -11.8210    13.0920     8.7960 c3         1 LWR      -0.062400
     19 C20        -11.6570    11.6860     8.1410 c3         1 LWR      -0.167700
     20 C22        -12.0850    10.5920     9.1470 c          1 LWR       0.533100
     21 C23        -13.6070    10.2590     9.1920 c3         1 LWR       0.034300
     22 C26        -14.0050     9.0870     8.2540 c3         1 LWR       0.220500
     23 C28        -13.5510     9.2240     6.7950 c2         1 LWR      -0.164400
     24 C29        -14.4620    10.1770     6.0210 c3         1 LWR      -0.058900
     25 C30        -12.5260     8.5150     6.2630 c2         1 LWR      -0.190200
     26 C31        -12.0500     8.4420     4.8120 c3         1 LWR      -0.085800
     27 C32        -10.5390     8.7730     4.7110 c3         1 LWR      -0.071100
     28 C33        -12.5430     7.1200     4.1650 c2         1 LWR       0.377300
     29 C34        -14.0190     7.1680     3.7970 c3         1 LWR      -0.120700
     30 C35        -14.3290     7.0990     2.2770 c3         1 LWR       0.183300
     31 C36        -15.6970     7.7630     1.8770 c3         1 LWR      -0.074700
     32 C37        -16.8920     7.0820     2.6180 c3         1 LWR      -0.071400
     33 C38        -18.3410     7.5260     2.2320 c6         1 LWR      -0.055700
     34 C39        -19.3760     6.8730     3.1890 c6         1 LWR      -0.072400
     35 C40        -20.8200     7.3210     2.8610 c6         1 LWR      -0.113400
     36 C41        -21.1850     6.9980     1.3920 c6         1 LWR       0.172300
     37 C43        -20.1580     7.6560     0.4090 c6         1 LWR       0.177300
     38 C46        -18.7060     7.2060     0.7520 c6         1 LWR      -0.109400
     39 C47        -15.6990     9.3080     2.0510 c3         1 LWR      -0.088100
     40 C49        -13.0400     7.4820     0.2420 c          1 LWR       0.589100
     41 C50        -11.7790     8.1620    -0.3800 c6         1 LWR       0.045700
     42 C51        -10.7290     8.6160     0.6810 c6         1 LWR      -0.075400
     43 C52        -11.0410     9.9950     1.2950 c6         1 LWR      -0.079400
     44 C53        -11.1320    11.0280     0.1690 c6         1 LWR      -0.095400
     45 C54        -12.2060    10.6400    -0.8660 c6         1 LWR       0.107000
     46 C56        -12.6610     8.8920    -2.6580 c          1 LWR       0.536100
     47 C57        -13.3320    10.0120    -3.5730 c          1 LWR       0.489100
     48 C58        -14.7320    10.5940    -3.1120 c6         1 LWR       0.324000
     49 C66         -9.8510     4.8380     3.9180 c3         1 LWR       0.162600
     50 C67         -9.4710     5.1540     2.4540 c3         1 LWR      -0.124100
     51 N55        -12.1160     9.2400    -1.3870 n          1 LWR      -0.369800
     52 N64        -11.8920     6.0120     3.9700 n2         1 LWR      -0.323700
     53 O08        -16.2700    15.6680    -0.9400 os         1 LWR      -0.452000
     54 O24        -14.0520     9.8890    10.5280 os         1 LWR      -0.416000
     55 O27        -13.5510     7.8590     8.8360 oh         1 LWR      -0.689000
     56 O42        -22.5320     7.4300     1.1280 oh         1 LWR      -0.705000
     57 O44        -20.5050     7.3490    -0.9660 os         1 LWR      -0.440000
     58 O48        -13.2400     7.7410     1.5790 os         1 LWR      -0.430100
     59 O59        -15.5120    10.9640    -4.2560 oh         1 LWR      -0.652000
     60 O60        -14.4490    11.8280    -2.4180 os         1 LWR      -0.501000
     61 O61        -12.7220    10.4790    -4.5390 o          1 LWR      -0.476100
     62 O62        -12.5750     7.7360    -3.0680 o          1 LWR      -0.595100
     63 O63        -13.7910     6.7840    -0.4260 o          1 LWR      -0.488000
     64 O65        -10.5730     5.9580     4.4710 os         1 LWR      -0.312000
     65 O68        -11.2940    10.1420     9.9710 o          1 LWR      -0.493100
     66 H113       -13.4700    17.0210     1.1580 hc         1 LWR       0.046367
     67 H111       -12.7690    15.7700     0.1190 hc         1 LWR       0.046367
     68 H112       -14.0660    16.8090    -0.4790 hc         1 LWR       0.046367
     69 H131       -12.9540    15.7760     3.0020 ha         1 LWR       0.175000
     70 H141       -14.6110    13.8500     4.7270 ha         1 LWR       0.169000
     71 H151       -11.9180    15.3540     5.2440 ha         1 LWR       0.172000
     72 H171       -10.7980    14.3010     7.3340 hc         1 LWR       0.056700
     73 H183       -11.1200    15.7400     9.3220 hc         1 LWR       0.037700
     74 H181       -11.8330    16.4820     7.8770 hc         1 LWR       0.037700
     75 H182       -12.8820    15.7050     9.0830 hc         1 LWR       0.037700
     76 H212       -10.0260    12.1140     6.7350 hc         1 LWR       0.041033
     77 H213        -9.4730    11.5980     8.3440 hc         1 LWR       0.041033
     78 H211       -10.1440    10.4100     7.2110 hc         1 LWR       0.041033
     79 H012       -16.4420     7.6210    -2.1450 hc         1 LWR       0.044033
     80 H011       -16.7800     8.5210    -3.6320 hc         1 LWR       0.044033
     81 H013       -15.1900     7.8020    -3.3690 hc         1 LWR       0.044033
     82 H021       -14.9160     9.3240    -1.3320 hc         1 LWR       0.076700
     83 H031       -17.5070    10.6060    -2.3420 hc         1 LWR       0.052200
     84 H032       -17.2870     9.7250    -0.8360 hc         1 LWR       0.052200
     85 H041       -17.2210    12.1960    -0.4900 hc         1 LWR       0.048200
     86 H042       -15.7120    11.4360     0.0160 hc         1 LWR       0.048200
     87 H051       -16.1910    12.9790    -2.6180 h1         1 LWR       0.065700
     88 H061       -14.0010    13.2970    -0.4990 hc         1 LWR       0.061200
     89 H062       -14.2980    14.3740    -1.8380 hc         1 LWR       0.061200
     90 H071       -16.3930    14.0360     0.3500 h1         1 LWR       0.035700
     91 H093       -17.6820    17.2090    -0.9080 h1         1 LWR       0.031367
     92 H091       -18.0220    15.8590     0.1970 h1         1 LWR       0.031367
     93 H092       -16.7400    17.0330     0.5870 h1         1 LWR       0.031367
     94 H121       -15.4740    14.0090     2.4540 ha         1 LWR       0.167000
     95 H161       -13.7210    13.5900     7.0090 ha         1 LWR       0.167000
     96 H191       -12.7770    13.1240     9.3350 hc         1 LWR       0.045700
     97 H192       -11.0420    13.2210     9.5580 hc         1 LWR       0.045700
     98 H201       -12.3730    11.6480     7.3170 hc         1 LWR       0.075700
     99 H231       -14.1480    11.1540     8.8560 h1         1 LWR       0.050700
    100 H253       -14.4320    10.5920    12.4600 h1         1 LWR       0.032700
    101 H251       -13.0530    11.3610    11.6490 h1         1 LWR       0.032700
    102 H252       -14.7160    11.7750    11.1640 h1         1 LWR       0.032700
    103 H261       -15.1050     9.0740     8.2480 h1         1 LWR       0.089700
    104 H292       -15.4720     9.7600     5.9270 hc         1 LWR       0.041367
    105 H293       -14.5580    11.1430     6.5290 hc         1 LWR       0.041367
    106 H291       -14.1090    10.3990     5.0100 hc         1 LWR       0.041367
    107 H301       -11.9580     7.8400     6.9070 ha         1 LWR       0.188000
    108 H311       -12.5120     9.2440     4.2300 hc         1 LWR       0.056700
    109 H323       -10.3730     9.8410     4.8930 hc         1 LWR       0.041033
    110 H322        -9.9530     8.2150     5.4510 hc         1 LWR       0.041033
    111 H321       -10.1500     8.5400     3.7140 hc         1 LWR       0.041033
    112 H341       -14.4860     8.0560     4.2250 hc         1 LWR       0.066200
    113 H342       -14.5270     6.3280     4.2840 hc         1 LWR       0.066200
    114 H351       -14.3590     6.0340     2.0050 h1         1 LWR       0.083700
    115 H361       -15.8420     7.5700     0.8100 hc         1 LWR       0.067700
    116 H371       -16.8070     5.9970     2.4770 hc         1 LWR       0.042200
    117 H372       -16.7640     7.2500     3.6950 hc         1 LWR       0.042200
    118 H381       -18.3960     8.6130     2.3810 hc         1 LWR       0.045700
    119 H392       -19.3060     5.7780     3.1250 hc         1 LWR       0.042700
    120 H391       -19.1440     7.1370     4.2300 hc         1 LWR       0.042700
    121 H402       -20.9220     8.4000     3.0440 hc         1 LWR       0.045700
    122 H401       -21.5210     6.8190     3.5420 hc         1 LWR       0.045700
    123 H411       -21.1190     5.9070     1.2590 h1         1 LWR       0.042700
    124 H431       -20.2200     8.7470     0.5370 h1         1 LWR       0.039700
    125 H452       -20.2470     7.8280    -2.9830 h1         1 LWR       0.028033
    126 H451       -19.8580     9.1390    -1.8470 h1         1 LWR       0.028033
    127 H453       -18.7500     7.7570    -2.0400 h1         1 LWR       0.028033
    128 H462       -18.5990     6.1290     0.5650 hc         1 LWR       0.054700
    129 H461       -17.9970     7.7100     0.0860 hc         1 LWR       0.054700
    130 H471       -16.5820     9.7500     1.5780 hc         1 LWR       0.037033
    131 H472       -15.7110     9.5950     3.1080 hc         1 LWR       0.037033
    132 H473       -14.8190     9.7630     1.5830 hc         1 LWR       0.037033
    133 H501       -11.3030     7.3340    -0.9250 h1         1 LWR       0.105700
    134 H512       -10.6320     7.8580     1.4690 hc         1 LWR       0.065200
    135 H511        -9.7420     8.6630     0.1990 hc         1 LWR       0.065200
    136 H521       -10.2490    10.2830     1.9990 hc         1 LWR       0.050200
    137 H522       -11.9800     9.9720     1.8650 hc         1 LWR       0.050200
    138 H532       -10.1580    11.1170    -0.3320 hc         1 LWR       0.051700
    139 H531       -11.3600    12.0200     0.5840 hc         1 LWR       0.051700
    140 H541       -12.1220    11.3520    -1.6980 h1         1 LWR       0.057200
    141 H542       -13.1950    10.7760    -0.4050 h1         1 LWR       0.057200
    142 H662       -10.4440     3.9150     3.9690 h1         1 LWR       0.055700
    143 H661        -8.9280     4.6750     4.4900 h1         1 LWR       0.055700
    144 H671        -8.8420     4.3530     2.0490 hc         1 LWR       0.040033
    145 H672       -10.3630     5.2370     1.8210 hc         1 LWR       0.040033
    146 H673        -8.9090     6.0930     2.3960 hc         1 LWR       0.040033
    147 H271       -13.6660     7.9930     9.8070 ho         1 LWR       0.510000
    148 H421       -23.1220     6.8650     1.6760 ho         1 LWR       0.498000
    149 H591       -14.9940    11.6720    -4.6950 ho         1 LWR       0.461000
    150 C25        -14.0610    10.9570    11.4940 c3         1 LWR       0.139900
    151 C09        -17.2230    16.4790    -0.2290 c3         1 LWR       0.142900
    152 C45        -19.8030     8.0540    -2.0050 c3         1 LWR       0.147900
@<TRIPOS>BOND
     1     1    15 1   
     2     1    66 1   
     3     1    67 1   
     4     1    68 1   
     5     2     3 2   
     6     2    16 1   
     7     2    69 1   
     8     3     4 1   
     9     3    70 1   
    10     4    17 2   
    11     4    71 1   
    12     5     6 1   
    13     5    17 1   
    14     5    18 1   
    15     5    72 1   
    16     6    73 1   
    17     6    74 1   
    18     6    75 1   
    19     7    19 1   
    20     7    76 1   
    21     7    77 1   
    22     7    78 1   
    23     8     9 1   
    24     8    79 1   
    25     8    80 1   
    26     8    81 1   
    27     9    10 1   
    28     9    48 1   
    29     9    82 1   
    30    10    11 1   
    31    10    83 1   
    32    10    84 1   
    33    11    12 1   
    34    11    85 1   
    35    11    86 1   
    36    12    13 1   
    37    12    60 1   
    38    12    87 1   
    39    13    14 1   
    40    13    88 1   
    41    13    89 1   
    42    14    15 1   
    43    14    53 1   
    44    14    90 1   
    45    15    16 2   
    46    16    94 1   
    47    17    95 1   
    48    18    19 1   
    49    18    96 1   
    50    18    97 1   
    51    19    20 1   
    52    19    98 1   
    53    20    21 1   
    54    20    65 2   
    55    21    22 1   
    56    21    54 1   
    57    21    99 1   
    58    22    23 1   
    59    22    55 1   
    60    22   103 1   
    61    23    24 1   
    62    23    25 2   
    63    24   104 1   
    64    24   105 1   
    65    24   106 1   
    66    25    26 1   
    67    25   107 1   
    68    26    27 1   
    69    26    28 1   
    70    26   108 1   
    71    27   109 1   
    72    27   110 1   
    73    27   111 1   
    74    28    29 1   
    75    28    52 2   
    76    29    30 1   
    77    29   112 1   
    78    29   113 1   
    79    30    31 1   
    80    30    58 1   
    81    30   114 1   
    82    31    32 1   
    83    31    39 1   
    84    31   115 1   
    85    32    33 1   
    86    32   116 1   
    87    32   117 1   
    88    33    34 1   
    89    33    38 1   
    90    33   118 1   
    91    34    35 1   
    92    34   119 1   
    93    34   120 1   
    94    35    36 1   
    95    35   121 1   
    96    35   122 1   
    97    36    37 1   
    98    36    56 1   
    99    36   123 1   
   100    37    38 1   
   101    37    57 1   
   102    37   124 1   
   103    38   128 1   
   104    38   129 1   
   105    39   130 1   
   106    39   131 1   
   107    39   132 1   
   108    40    41 1   
   109    40    58 1   
   110    40    63 2   
   111    41    42 1   
   112    41    51 1   
   113    41   133 1   
   114    42    43 1   
   115    42   134 1   
   116    42   135 1   
   117    43    44 1   
   118    43   136 1   
   119    43   137 1   
   120    44    45 1   
   121    44   138 1   
   122    44   139 1   
   123    45    51 1   
   124    45   140 1   
   125    45   141 1   
   126    46    47 1   
   127    46    51 1   
   128    46    62 2   
   129    47    48 1   
   130    47    61 2   
   131    48    59 1   
   132    48    60 1   
   133    49    50 1   
   134    49    64 1   
   135    49   142 1   
   136    49   143 1   
   137    50   144 1   
   138    50   145 1   
   139    50   146 1   
   140    52    64 1   
   141    53   151 1   
   142    54   150 1   
   143    55   147 1   
   144    56   148 1   
   145    57   152 1   
   146    59   149 1   
   147    91   151 1   
   148    92   151 1   
   149    93   151 1   
   150   100   150 1   
   151   101   150 1   
   152   102   150 1   
   153   125   152 1   
   154   126   152 1   
   155   127   152 1   
@<TRIPOS>SUBSTRUCTURE
     1 LWR         1 TEMP              0 ****  ****    0 ROOT
