@<TRIPOS>MOLECULE
LWR
  152   155     1     0     0
SMALL
abcg2


@<TRIPOS>ATOM
      1 C11        -11.7240    14.3630     1.5370 c3         1 LWR      -0.053900
      2 C13        -13.2810    14.2760     4.1820 ce         1 LWR      -0.172000
      3 C14        -14.0040    14.1880     5.3130 cf         1 LWR      -0.176000
      4 C15        -13.4210    14.2440     6.6360 cf         1 LWR      -0.189000
      5 C17        -13.4970    14.0070     9.1350 c3         1 LWR      -0.030500
      6 C18        -14.2770    14.8980    10.1010 c3         1 LWR      -0.085100
      7 C21        -11.1630    11.8860     8.8090 c3         1 LWR      -0.077100
      8 C01        -16.7590    10.3350    -4.5490 c3         1 LWR      -0.083100
      9 C02        -16.1230    10.7680    -3.2360 c6         1 LWR      -0.060700
     10 C03        -16.6680    12.1090    -2.7450 c6         1 LWR      -0.072400
     11 C04        -16.0030    12.5350    -1.4390 c6         1 LWR      -0.105400
     12 C05        -14.4880    12.5040    -1.5630 c6         1 LWR       0.182300
     13 C06        -13.7490    12.7010    -0.2500 c3         1 LWR      -0.069400
     14 C07        -13.9960    14.0570     0.4040 c3         1 LWR       0.205500
     15 C10        -13.2050    14.2040     1.6870 c2         1 LWR      -0.126400
     16 C12        -13.8590    14.1790     2.8600 ce         1 LWR      -0.186000
     17 C16        -14.1030    14.0380     7.7680 c2         1 LWR      -0.200200
     18 C19        -13.4640    12.5650     9.6710 c3         1 LWR      -0.062400
     19 C20        -12.6560    11.5940     8.7920 c3         1 LWR      -0.167700
     20 C22        -12.9640    10.1870     9.2390 c          1 LWR       0.533100
     21 C23        -14.2800     9.5730     8.7510 c3         1 LWR       0.034300
     22 C26        -14.0680     8.8420     7.3980 c3         1 LWR       0.220500
     23 C28        -13.8350     9.8000     6.2420 c2         1 LWR      -0.164400
     24 C29        -15.0010    10.7030     5.9540 c3         1 LWR      -0.058900
     25 C30        -12.7080     9.7620     5.5290 c2         1 LWR      -0.190200
     26 C31        -12.3540    10.5960     4.3250 c3         1 LWR      -0.085800
     27 C32        -11.0550    11.3710     4.5430 c3         1 LWR      -0.071100
     28 C33        -12.4530     9.6710     3.1230 c2         1 LWR       0.377300
     29 C34        -13.8310     9.6100     2.5170 c3         1 LWR      -0.120700
     30 C35        -14.2720     8.2760     1.9440 c3         1 LWR       0.183300
     31 C36        -15.7920     8.1650     1.7480 c3         1 LWR      -0.074700
     32 C37        -16.4750     7.9110     3.0940 c3         1 LWR      -0.071400
     33 C38        -17.9950     7.7470     3.0540 c6         1 LWR      -0.055700
     34 C39        -18.5150     7.3990     4.4480 c6         1 LWR      -0.072400
     35 C40        -20.0240     7.2020     4.4520 c6         1 LWR      -0.113400
     36 C41        -20.4630     6.1390     3.4490 c6         1 LWR       0.172300
     37 C43        -19.9750     6.5190     2.0580 c6         1 LWR       0.177300
     38 C46        -18.4560     6.6820     2.0610 c6         1 LWR      -0.109400
     39 C47        -16.3760     9.3610     1.0020 c3         1 LWR      -0.088100
     40 C49        -13.1700     6.9180     0.3270 c          1 LWR       0.589100
     41 C50        -12.8880     6.7820    -1.1630 c6         1 LWR       0.045700
     42 C51        -11.6050     6.0020    -1.4540 c6         1 LWR      -0.075400
     43 C52        -10.3580     6.8470    -1.2470 c6         1 LWR      -0.079400
     44 C53        -10.4480     8.1190    -2.0780 c6         1 LWR      -0.095400
     45 C54        -11.7170     8.8850    -1.7500 c6         1 LWR       0.107000
     46 C56        -14.0070     8.4020    -2.5390 c          1 LWR       0.536100
     47 C57        -13.9100     9.5140    -3.5740 c          1 LWR       0.489100
     48 C58        -14.5900    10.8640    -3.3030 c6         1 LWR       0.324000
     49 C66         -9.3650     8.3290     2.4580 c3         1 LWR       0.162600
     50 C67         -8.8950     9.2350     1.3400 c3         1 LWR      -0.124100
     51 N55        -12.8980     8.0410    -1.8820 n          1 LWR      -0.369800
     52 N64        -11.5690     8.9130     2.6180 n2         1 LWR      -0.323700
     53 O08        -13.6610    15.0550    -0.5360 os         1 LWR      -0.452000
     54 O24        -14.7730     8.6310     9.6570 os         1 LWR      -0.416000
     55 O27        -13.1380     7.8050     7.5060 oh         1 LWR      -0.689000
     56 O42        -21.8660     6.0030     3.4060 oh         1 LWR      -0.705000
     57 O44        -20.4000     5.5280     1.1500 os         1 LWR      -0.440000
     58 O48        -13.6580     8.0990     0.6520 os         1 LWR      -0.430100
     59 O59        -14.2680    11.7610    -4.3040 oh         1 LWR      -0.652000
     60 O60        -14.0630    11.2260    -2.0540 os         1 LWR      -0.501000
     61 O61        -13.3660     9.2700    -4.6190 o          1 LWR      -0.476100
     62 O62        -15.0770     7.8140    -2.4910 o          1 LWR      -0.595100
     63 O63        -13.0230     5.9920     1.0850 o          1 LWR      -0.488000
     64 O65        -10.3650     8.9280     3.2660 os         1 LWR      -0.312000
     65 O68        -12.2230     9.5460     9.9480 o          1 LWR      -0.493100
     66 H113       -11.2010    14.3880     2.4900 hc         1 LWR       0.046367
     67 H111       -11.2930    13.5460     0.9540 hc         1 LWR       0.046367
     68 H112       -11.4780    15.2860     1.0070 hc         1 LWR       0.046367
     69 H131       -12.2090    14.4180     4.2710 ha         1 LWR       0.175000
     70 H141       -15.0790    14.0380     5.2490 ha         1 LWR       0.169000
     71 H151       -12.3520    14.4380     6.6920 ha         1 LWR       0.172000
     72 H171       -12.4720    14.3820     9.0720 hc         1 LWR       0.056700
     73 H183       -13.8380    14.8660    11.1000 hc         1 LWR       0.037700
     74 H181       -14.2780    15.9360     9.7680 hc         1 LWR       0.037700
     75 H182       -15.3150    14.5710    10.1830 hc         1 LWR       0.037700
     76 H212       -10.9560    12.8670     8.3800 hc         1 LWR       0.041033
     77 H213       -10.7650    11.8770     9.8230 hc         1 LWR       0.041033
     78 H211       -10.6090    11.1540     8.2200 hc         1 LWR       0.041033
     79 H012       -17.8400    10.2570    -4.4240 hc         1 LWR       0.044033
     80 H011       -16.5700    11.0500    -5.3490 hc         1 LWR       0.044033
     81 H013       -16.4020     9.3570    -4.8760 hc         1 LWR       0.044033
     82 H021       -16.3590    10.0200    -2.4750 hc         1 LWR       0.076700
     83 H031       -16.5200    12.8770    -3.5090 hc         1 LWR       0.052200
     84 H032       -17.7470    12.0190    -2.6000 hc         1 LWR       0.052200
     85 H041       -16.3290    13.5420    -1.1700 hc         1 LWR       0.048200
     86 H042       -16.3160    11.8710    -0.6270 hc         1 LWR       0.048200
     87 H051       -14.1720    13.2750    -2.2720 h1         1 LWR       0.065700
     88 H061       -14.0620    11.9310     0.4590 hc         1 LWR       0.061200
     89 H062       -12.6780    12.5590    -0.4250 hc         1 LWR       0.061200
     90 H071       -15.0660    14.1330     0.6550 h1         1 LWR       0.035700
     91 H093       -13.8290    17.0230    -0.9730 h1         1 LWR       0.031367
     92 H091       -15.1210    16.4060     0.0730 h1         1 LWR       0.031367
     93 H092       -13.5070    16.7030     0.7390 h1         1 LWR       0.031367
     94 H121       -14.9410    14.0720     2.8320 ha         1 LWR       0.167000
     95 H161       -15.1710    13.8280     7.7100 ha         1 LWR       0.167000
     96 H191       -14.4990    12.2180     9.7680 hc         1 LWR       0.045700
     97 H192       -13.0450    12.5690    10.6810 hc         1 LWR       0.045700
     98 H201       -13.0240    11.7000     7.7660 hc         1 LWR       0.075700
     99 H231       -15.0150    10.3740     8.5890 h1         1 LWR       0.050700
    100 H253       -15.7640     8.3910    11.4050 h1         1 LWR       0.032700
    101 H251       -14.6400     9.7560    11.4170 h1         1 LWR       0.032700
    102 H252       -16.1770     9.8840    10.5430 h1         1 LWR       0.032700
    103 H261       -15.0280     8.3510     7.1960 h1         1 LWR       0.089700
    104 H292       -15.9160    10.1160     5.8430 hc         1 LWR       0.041367
    105 H293       -15.1830    11.4160     6.7620 hc         1 LWR       0.041367
    106 H291       -14.8740    11.2930     5.0510 hc         1 LWR       0.041367
    107 H301       -11.9400     9.0430     5.7980 ha         1 LWR       0.188000
    108 H311       -13.1280    11.3490     4.1630 hc         1 LWR       0.056700
    109 H323       -11.2440    12.1450     5.2880 hc         1 LWR       0.041033
    110 H322       -10.2420    10.7520     4.9100 hc         1 LWR       0.041033
    111 H321       -10.7270    11.8660     3.6280 hc         1 LWR       0.041033
    112 H341       -13.9320    10.4060     1.7740 hc         1 LWR       0.066200
    113 H342       -14.5420     9.8720     3.3020 hc         1 LWR       0.066200
    114 H351       -13.9430     7.4760     2.6100 h1         1 LWR       0.083700
    115 H361       -15.9470     7.2730     1.1310 hc         1 LWR       0.067700
    116 H371       -16.0410     7.0080     3.5400 hc         1 LWR       0.042200
    117 H372       -16.2510     8.7280     3.7890 hc         1 LWR       0.042200
    118 H381       -18.4450     8.7040     2.7630 hc         1 LWR       0.045700
    119 H392       -18.0230     6.4820     4.7920 hc         1 LWR       0.042700
    120 H391       -18.2390     8.1830     5.1590 hc         1 LWR       0.042700
    121 H402       -20.5200     8.1470     4.2030 hc         1 LWR       0.045700
    122 H401       -20.3650     6.9200     5.4520 hc         1 LWR       0.045700
    123 H411       -19.9860     5.1840     3.7250 h1         1 LWR       0.042700
    124 H431       -20.4320     7.4880     1.7920 h1         1 LWR       0.039700
    125 H452       -20.8540     5.1360    -0.7820 h1         1 LWR       0.028033
    126 H451       -20.9940     6.8470    -0.3450 h1         1 LWR       0.028033
    127 H453       -19.3980     6.1180    -0.5910 h1         1 LWR       0.028033
    128 H462       -17.9920     5.7220     2.3170 hc         1 LWR       0.054700
    129 H461       -18.1190     6.9340     1.0520 hc         1 LWR       0.054700
    130 H471       -17.3990     9.1640     0.6810 hc         1 LWR       0.037033
    131 H472       -16.3970    10.2580     1.6240 hc         1 LWR       0.037033
    132 H473       -15.8030     9.5970     0.1030 hc         1 LWR       0.037033
    133 H501       -13.7290     6.1890    -1.5350 h1         1 LWR       0.105700
    134 H512       -11.5880     5.1050    -0.8360 hc         1 LWR       0.065200
    135 H511       -11.6500     5.6670    -2.4930 hc         1 LWR       0.065200
    136 H521        -9.4720     6.2730    -1.5210 hc         1 LWR       0.050200
    137 H522       -10.2470     7.1030    -0.1880 hc         1 LWR       0.050200
    138 H532       -10.4390     7.8700    -3.1430 hc         1 LWR       0.051700
    139 H531        -9.5910     8.7700    -1.8920 hc         1 LWR       0.051700
    140 H541       -11.8090     9.7610    -2.3880 h1         1 LWR       0.057200
    141 H542       -11.6710     9.2610    -0.7230 h1         1 LWR       0.057200
    142 H662        -9.7300     7.3760     2.0620 h1         1 LWR       0.055700
    143 H661        -8.5440     8.1090     3.1420 h1         1 LWR       0.055700
    144 H671        -8.1170     8.7350     0.7600 hc         1 LWR       0.040033
    145 H672        -9.7060     9.4870     0.6560 hc         1 LWR       0.040033
    146 H673        -8.4760    10.1640     1.7300 hc         1 LWR       0.040033
    147 H271       -12.2730     8.1460     7.7590 ho         1 LWR       0.510000
    148 H421       -22.1690     5.7830     4.2930 ho         1 LWR       0.498000
    149 H591       -13.3130    11.7920    -4.4400 ho         1 LWR       0.461000
    150 C25        -15.3580     9.2030    10.8030 c3         1 LWR       0.139900
    151 C09        -14.0480    16.3490    -0.1460 c3         1 LWR       0.142900
    152 C45        -20.4020     5.9350    -0.1940 c3         1 LWR       0.147900
@<TRIPOS>BOND
     1     1    15 1   
     2     1    66 1   
     3     1    67 1   
     4     1    68 1   
     5     2     3 2   
     6     2    16 1   
     7     2    69 1   
     8     3     4 1   
     9     3    70 1   
    10     4    17 2   
    11     4    71 1   
    12     5     6 1   
    13     5    17 1   
    14     5    18 1   
    15     5    72 1   
    16     6    73 1   
    17     6    74 1   
    18     6    75 1   
    19     7    19 1   
    20     7    76 1   
    21     7    77 1   
    22     7    78 1   
    23     8     9 1   
    24     8    79 1   
    25     8    80 1   
    26     8    81 1   
    27     9    10 1   
    28     9    48 1   
    29     9    82 1   
    30    10    11 1   
    31    10    83 1   
    32    10    84 1   
    33    11    12 1   
    34    11    85 1   
    35    11    86 1   
    36    12    13 1   
    37    12    60 1   
    38    12    87 1   
    39    13    14 1   
    40    13    88 1   
    41    13    89 1   
    42    14    15 1   
    43    14    53 1   
    44    14    90 1   
    45    15    16 2   
    46    16    94 1   
    47    17    95 1   
    48    18    19 1   
    49    18    96 1   
    50    18    97 1   
    51    19    20 1   
    52    19    98 1   
    53    20    21 1   
    54    20    65 2   
    55    21    22 1   
    56    21    54 1   
    57    21    99 1   
    58    22    23 1   
    59    22    55 1   
    60    22   103 1   
    61    23    24 1   
    62    23    25 2   
    63    24   104 1   
    64    24   105 1   
    65    24   106 1   
    66    25    26 1   
    67    25   107 1   
    68    26    27 1   
    69    26    28 1   
    70    26   108 1   
    71    27   109 1   
    72    27   110 1   
    73    27   111 1   
    74    28    29 1   
    75    28    52 2   
    76    29    30 1   
    77    29   112 1   
    78    29   113 1   
    79    30    31 1   
    80    30    58 1   
    81    30   114 1   
    82    31    32 1   
    83    31    39 1   
    84    31   115 1   
    85    32    33 1   
    86    32   116 1   
    87    32   117 1   
    88    33    34 1   
    89    33    38 1   
    90    33   118 1   
    91    34    35 1   
    92    34   119 1   
    93    34   120 1   
    94    35    36 1   
    95    35   121 1   
    96    35   122 1   
    97    36    37 1   
    98    36    56 1   
    99    36   123 1   
   100    37    38 1   
   101    37    57 1   
   102    37   124 1   
   103    38   128 1   
   104    38   129 1   
   105    39   130 1   
   106    39   131 1   
   107    39   132 1   
   108    40    41 1   
   109    40    58 1   
   110    40    63 2   
   111    41    42 1   
   112    41    51 1   
   113    41   133 1   
   114    42    43 1   
   115    42   134 1   
   116    42   135 1   
   117    43    44 1   
   118    43   136 1   
   119    43   137 1   
   120    44    45 1   
   121    44   138 1   
   122    44   139 1   
   123    45    51 1   
   124    45   140 1   
   125    45   141 1   
   126    46    47 1   
   127    46    51 1   
   128    46    62 2   
   129    47    48 1   
   130    47    61 2   
   131    48    59 1   
   132    48    60 1   
   133    49    50 1   
   134    49    64 1   
   135    49   142 1   
   136    49   143 1   
   137    50   144 1   
   138    50   145 1   
   139    50   146 1   
   140    52    64 1   
   141    53   151 1   
   142    54   150 1   
   143    55   147 1   
   144    56   148 1   
   145    57   152 1   
   146    59   149 1   
   147    91   151 1   
   148    92   151 1   
   149    93   151 1   
   150   100   150 1   
   151   101   150 1   
   152   102   150 1   
   153   125   152 1   
   154   126   152 1   
   155   127   152 1   
@<TRIPOS>SUBSTRUCTURE
     1 LWR         1 TEMP              0 ****  ****    0 ROOT
