@<TRIPOS>MOLECULE
LWS
   34    36     1     0     0
SMALL
No Charge or Current Charge


@<TRIPOS>ATOM
      1 C1          -2.6330    -1.8150    -1.5640 c3         1 LWS      -0.071100
      2 C2          -2.5360    -1.1670    -0.1600 c5         1 LWS      -0.082700
      3 C3          -1.2250    -0.3970     0.0210 ca         1 LWS      -0.117300
      4 C4           0.0970    -0.8680    -0.0130 ca         1 LWS      -0.056000
      5 C5           1.1620     0.0490     0.1790 ca         1 LWS      -0.010000
      6 C6           0.8710     1.4190     0.4130 ca         1 LWS      -0.118000
      7 C7          -0.4610     1.8710     0.4440 ca         1 LWS       0.135000
      8 C8          -1.4820     0.9370     0.2430 ca         1 LWS      -0.067000
      9 N9          -2.8600     1.1050     0.2240 ns         1 LWS      -0.137000
     10 C10         -3.6180    -0.0250     0.0010 c          1 LWS       0.567000
     11 O11         -4.8410    -0.0790    -0.0510 o          1 LWS      -0.518000
     12 F12         -0.7460     3.1730     0.6690 f          1 LWS      -0.177000
     13 C13          2.5480    -0.4290     0.1490 cc         1 LWS      -0.138000
     14 C14          2.9300    -1.6190     0.7030 cd         1 LWS      -0.156000
     15 C15          4.3230    -1.7440     0.5450 cd         1 LWS      -0.180000
     16 C16          4.8050    -0.6350    -0.1020 cc         1 LWS      -0.189000
     17 N17          3.7010     0.1880    -0.3500 na         1 LWS       0.035000
     18 C18          3.7610     1.4620    -1.0810 c3         1 LWS       0.052900
     19 C19         -2.7220    -2.2500     0.9320 c3         1 LWS      -0.071100
     20 H1          -1.8570    -2.5760    -1.7060 hc         1 LWS       0.047367
     21 H1A         -3.6060    -2.2990    -1.7150 hc         1 LWS       0.047367
     22 H1B         -2.5100    -1.0640    -2.3540 hc         1 LWS       0.047367
     23 H4           0.2970    -1.9200    -0.1960 ha         1 LWS       0.131000
     24 H6           1.6710     2.1300     0.5900 ha         1 LWS       0.133000
     25 HN9         -3.2870     2.0110     0.3670 hn         1 LWS       0.182000
     26 H14          2.2790    -2.3360     1.1950 ha         1 LWS       0.132000
     27 H15          4.9250    -2.5820     0.8850 ha         1 LWS       0.134000
     28 H16          5.8110    -0.3690    -0.4020 h4         1 LWS       0.144000
     29 H18          3.8740     2.2880    -0.3690 h1         1 LWS       0.052367
     30 H18A         4.6200     1.4550    -1.7630 h1         1 LWS       0.052367
     31 H18B         2.8430     1.6000    -1.6640 h1         1 LWS       0.052367
     32 H19         -1.9480    -3.0240     0.8620 hc         1 LWS       0.047367
     33 H19A        -2.6620    -1.8130     1.9360 hc         1 LWS       0.047367
     34 H19B        -3.6970    -2.7450     0.8430 hc         1 LWS       0.047367
@<TRIPOS>BOND
     1     1     2 1   
     2     1    20 1   
     3     1    21 1   
     4     1    22 1   
     5     2     3 1   
     6     2    10 1   
     7     2    19 1   
     8     3     4 ar  
     9     3     8 ar  
    10     4     5 ar  
    11     4    23 1   
    12     5     6 ar  
    13     5    13 1   
    14     6     7 ar  
    15     6    24 1   
    16     7     8 ar  
    17     7    12 1   
    18     8     9 1   
    19     9    10 1   
    20     9    25 1   
    21    10    11 2   
    22    13    14 2   
    23    13    17 1   
    24    14    15 1   
    25    14    26 1   
    26    15    16 2   
    27    15    27 1   
    28    16    17 1   
    29    16    28 1   
    30    17    18 1   
    31    18    29 1   
    32    18    30 1   
    33    18    31 1   
    34    19    32 1   
    35    19    33 1   
    36    19    34 1   
@<TRIPOS>SUBSTRUCTURE
     1 LWS         1 TEMP              0 ****  ****    0 ROOT
