@<TRIPOS>MOLECULE
LWS
   34    36     1     0     0
SMALL
bcc


@<TRIPOS>ATOM
      1 C1          -2.5920    -1.7410    -1.5890 c3         1 LWS      -0.071100
      2 C2          -2.4850    -1.1380    -0.1870 c5         1 LWS      -0.082700
      3 C3          -1.1830    -0.4140     0.0260 ca         1 LWS      -0.117300
      4 C4           0.1150    -0.8720    -0.0020 ca         1 LWS      -0.074000
      5 C5           1.1720     0.0210     0.2270 ca         1 LWS      -0.010000
      6 C6           0.8800     1.3640     0.4800 ca         1 LWS      -0.136000
      7 C7          -0.4280     1.8080     0.4890 ca         1 LWS       0.099900
      8 C8          -1.4620     0.9260     0.2660 ca         1 LWS       0.025600
      9 N9          -2.8300     1.1430     0.2290 ns         1 LWS      -0.463100
     10 C10         -3.5110    -0.0080    -0.0320 c          1 LWS       0.709500
     11 O11         -4.7150    -0.1130    -0.1220 o          1 LWS      -0.593500
     12 F12         -0.6990     3.1000     0.7310 f          1 LWS      -0.141900
     13 C13          2.5440    -0.4860     0.2440 cc         1 LWS      -0.087300
     14 C14          3.0140    -1.6450     0.8280 cd         1 LWS      -0.174000
     15 C15          4.4050    -1.7080     0.5950 cd         1 LWS      -0.198000
     16 C16          4.7370    -0.5900    -0.1290 cc         1 LWS      -0.156300
     17 N17          3.6110     0.1460    -0.3390 na         1 LWS      -0.037100
     18 C18          3.5800     1.3580    -1.1290 c3         1 LWS       0.023600
     19 C19         -2.7330    -2.2020     0.8850 c3         1 LWS      -0.071100
     20 H1          -1.8420    -2.5220    -1.7180 hc         1 LWS       0.047367
     21 H1A         -3.5740    -2.1900    -1.7370 hc         1 LWS       0.047367
     22 H1B         -2.4350    -0.9910    -2.3640 hc         1 LWS       0.047367
     23 H4           0.3250    -1.9130    -0.2140 ha         1 LWS       0.149000
     24 H6           1.6670     2.0750     0.7000 ha         1 LWS       0.151000
     25 HN9         -3.2780     2.0350     0.3760 hn         1 LWS       0.348500
     26 H14          2.4140    -2.3500     1.3830 ha         1 LWS       0.150000
     27 H15          5.0870    -2.4770     0.9210 ha         1 LWS       0.152000
     28 H16          5.6870    -0.2660    -0.5210 h4         1 LWS       0.162000
     29 H18          3.6350     2.2520    -0.5080 h1         1 LWS       0.052367
     30 H18A         4.4300     1.3590    -1.8060 h1         1 LWS       0.052367
     31 H18B         2.6700     1.3990    -1.7240 h1         1 LWS       0.052367
     32 H19         -1.9810    -2.9880     0.8120 hc         1 LWS       0.047367
     33 H19A        -2.6860    -1.7810     1.8890 hc         1 LWS       0.047367
     34 H19B        -3.7140    -2.6580     0.7490 hc         1 LWS       0.047367
@<TRIPOS>BOND
     1     1     2 1   
     2     1    20 1   
     3     1    21 1   
     4     1    22 1   
     5     2     3 1   
     6     2    10 1   
     7     2    19 1   
     8     3     4 ar  
     9     3     8 ar  
    10     4     5 ar  
    11     4    23 1   
    12     5     6 ar  
    13     5    13 1   
    14     6     7 ar  
    15     6    24 1   
    16     7     8 ar  
    17     7    12 1   
    18     8     9 1   
    19     9    10 1   
    20     9    25 1   
    21    10    11 2   
    22    13    14 2   
    23    13    17 1   
    24    14    15 1   
    25    14    26 1   
    26    15    16 2   
    27    15    27 1   
    28    16    17 1   
    29    16    28 1   
    30    17    18 1   
    31    18    29 1   
    32    18    30 1   
    33    18    31 1   
    34    19    32 1   
    35    19    33 1   
    36    19    34 1   
@<TRIPOS>SUBSTRUCTURE
     1 LWS         1 TEMP              0 ****  ****    0 ROOT
