@<TRIPOS>MOLECULE
LWT
   43    46     1     0     0
SMALL
bcc


@<TRIPOS>ATOM
      1 C4          -3.3620     8.3010    11.6340 ca         1 LWT      -0.121000
      2 C5          -2.9680     7.5160    12.7220 ca         1 LWT      -0.092300
      3 C6          -3.8160     6.2830    12.9760 c6         1 LWT       0.304800
      4 N1          -5.4490    -0.2980    15.9140 n8         1 LWT      -0.884700
      5 C7          -5.0370     6.6150    13.8310 c5         1 LWT      -0.074700
      6 C8          -5.8760     5.3790    14.1700 c5         1 LWT      -0.005400
      7 C9          -6.8400     5.9510    15.2100 c5         1 LWT      -0.074400
      8 C10         -5.9570     6.8450    16.0910 c5         1 LWT      -0.076400
      9 C11         -4.7770     7.2760    15.1940 c5         1 LWT      -0.073400
     10 C12         -4.9900     4.2740    14.7000 ca         1 LWT      -0.180300
     11 C13         -3.6300     4.2320    14.3290 ca         1 LWT       0.268600
     12 C14         -2.8160     3.1760    14.7940 ca         1 LWT      -0.244000
     13 C15         -3.3310     2.1870    15.5960 ca         1 LWT       0.034000
     14 O1          -6.6410     1.4070    17.4630 o          1 LWT      -0.624300
     15 O           -4.3480     0.5530    17.9660 o          1 LWT      -0.624300
     16 C16         -4.6760     2.2310    15.9590 ca         1 LWT      -0.356500
     17 N           -3.0810     5.1850    13.5430 nu         1 LWT      -0.764600
     18 C17         -5.4870     3.2700    15.5110 ca         1 LWT       0.021000
     19 C           -1.8810     7.9770    13.4640 ca         1 LWT       0.044400
     20 CL          -1.2500     7.1370    14.8520 cl         1 LWT      -0.102400
     21 C3          -2.7290     9.4840    11.3000 ca         1 LWT      -0.123000
     22 C2          -1.6480     9.9160    12.0540 ca         1 LWT      -0.113000
     23 C1          -1.2250     9.1590    13.1320 ca         1 LWT      -0.125000
     24 H1          -4.1980     7.9580    11.0360 ha         1 LWT       0.133000
     25 H2          -4.2020     5.9840    11.9910 h1         1 LWT       0.044700
     26 H3          -5.6160    -1.1720    16.4050 hn         1 LWT       0.409800
     27 H4          -6.1740    -0.1500    15.2200 hn         1 LWT       0.409800
     28 H5          -5.6620     7.2840    13.2320 hc         1 LWT       0.055700
     29 H6          -6.4110     5.0160    13.2860 hc         1 LWT       0.057700
     30 H7          -7.5900     6.5510    14.6890 hc         1 LWT       0.047200
     31 H8          -7.3850     5.1990    15.7810 hc         1 LWT       0.047200
     32 H9          -5.5930     6.2860    16.9550 hc         1 LWT       0.047200
     33 H10         -6.5130     7.6970    16.4820 hc         1 LWT       0.047200
     34 H11         -3.8320     6.9410    15.6210 hc         1 LWT       0.052700
     35 H12         -4.7050     8.3600    15.0950 hc         1 LWT       0.052700
     36 H13         -1.7700     3.1500    14.5130 ha         1 LWT       0.135000
     37 H14         -2.6850     1.3900    15.9400 ha         1 LWT       0.150000
     38 H15         -2.1570     5.0100    13.1850 hn         1 LWT       0.441800
     39 H16         -6.5320     3.2910    15.7920 ha         1 LWT       0.149000
     40 H17         -3.0730    10.0590    10.4500 ha         1 LWT       0.139000
     41 H18         -1.1310    10.8340    11.8080 ha         1 LWT       0.140000
     42 H19         -0.3810     9.4850    13.7260 ha         1 LWT       0.150000
     43 S           -5.3350     0.9710    16.9780 sy         1 LWT       1.276200
@<TRIPOS>BOND
     1     1     2 ar  
     2     1    21 ar  
     3     1    24 1   
     4     2     3 1   
     5     2    19 ar  
     6     3     5 1   
     7     3    17 1   
     8     3    25 1   
     9     4    26 1   
    10     4    27 1   
    11     4    43 1   
    12     5     6 1   
    13     5     9 1   
    14     5    28 1   
    15     6     7 1   
    16     6    10 1   
    17     6    29 1   
    18     7     8 1   
    19     7    30 1   
    20     7    31 1   
    21     8     9 1   
    22     8    32 1   
    23     8    33 1   
    24     9    34 1   
    25     9    35 1   
    26    10    11 ar  
    27    10    18 ar  
    28    11    12 ar  
    29    11    17 1   
    30    12    13 ar  
    31    12    36 1   
    32    13    16 ar  
    33    13    37 1   
    34    14    43 2   
    35    15    43 2   
    36    16    18 ar  
    37    16    43 1   
    38    17    38 1   
    39    18    39 1   
    40    19    20 1   
    41    19    23 ar  
    42    21    22 ar  
    43    21    40 1   
    44    22    23 ar  
    45    22    41 1   
    46    23    42 1   
@<TRIPOS>SUBSTRUCTURE
     1 LWT         1 TEMP              0 ****  ****    0 ROOT
