@<TRIPOS>MOLECULE
LWT
   43    46     1     0     0
SMALL
No Charge or Current Charge


@<TRIPOS>ATOM
      1 C4          -3.4000     8.3210    11.5260 ca         1 LWT      -0.103000
      2 C5          -2.9860     7.5760    12.6550 ca         1 LWT      -0.092300
      3 C6          -3.8120     6.3100    12.9800 c6         1 LWT       0.304800
      4 N1          -5.5930    -0.2770    15.9340 n8         1 LWT      -0.995100
      5 C7          -5.0430     6.5960    13.8800 c5         1 LWT      -0.074700
      6 C8          -5.9090     5.3310    14.1390 c5         1 LWT      -0.005400
      7 C9          -6.8890     5.8960    15.2100 c5         1 LWT      -0.074400
      8 C10         -5.9590     6.6590    16.1940 c5         1 LWT      -0.076400
      9 C11         -4.7590     7.1440    15.3220 c5         1 LWT      -0.073400
     10 C12         -4.9800     4.2280    14.7000 ca         1 LWT      -0.180300
     11 C13         -3.6030     4.2100    14.3670 ca         1 LWT       0.407000
     12 C14         -2.7570     3.2180    14.8740 ca         1 LWT      -0.226000
     13 C15         -3.2620     2.2060    15.6990 ca         1 LWT       0.052000
     14 O1          -6.6060     1.2500    17.5420 o          1 LWT      -0.553500
     15 O           -4.2340     0.3260    17.8960 o          1 LWT      -0.553500
     16 C16         -4.6330     2.1840    16.0080 ca         1 LWT      -0.356500
     17 N           -3.0530     5.1860    13.5390 nu         1 LWT      -0.958200
     18 C17         -5.4880     3.1860    15.5060 ca         1 LWT       0.039000
     19 C           -1.8700     8.0520    13.4040 ca         1 LWT       0.136000
     20 Cl          -1.2260     7.2460    14.8380 cl         1 LWT      -0.194000
     21 C3          -2.7330     9.4950    11.1430 ca         1 LWT      -0.105000
     22 C2          -1.6360     9.9520    11.8850 ca         1 LWT      -0.095000
     23 C1          -1.2100     9.2310    13.0100 ca         1 LWT      -0.107000
     24 H1          -4.2530     7.9870    10.9380 ha         1 LWT       0.115000
     25 H2          -4.2260     5.9550    12.0230 h1         1 LWT       0.044700
     26 H3          -6.5720    -0.4740    16.1310 hn         1 LWT       0.465000
     27 H4          -5.6190     0.2590    15.0700 hn         1 LWT       0.465000
     28 H5          -5.6330     7.3330    13.3210 hc         1 LWT       0.055700
     29 H6          -6.4330     4.9960    13.2350 hc         1 LWT       0.057700
     30 H7          -7.6000     6.5900    14.7430 hc         1 LWT       0.047200
     31 H8          -7.4980     5.1360    15.7090 hc         1 LWT       0.047200
     32 H9          -5.6100     5.9960    16.9940 hc         1 LWT       0.047200
     33 H10         -6.4800     7.4920    16.6800 hc         1 LWT       0.047200
     34 H11         -3.8270     6.7480    15.7360 hc         1 LWT       0.052700
     35 H12         -4.6620     8.2360    15.3230 hc         1 LWT       0.052700
     36 H13         -1.7000     3.2250    14.6220 ha         1 LWT       0.117000
     37 H14         -2.5910     1.4370    16.0810 ha         1 LWT       0.132000
     38 H15         -2.0360     5.2270    13.5060 hn         1 LWT       0.497000
     39 H16         -6.5490     3.1490    15.7400 ha         1 LWT       0.131000
     40 H17         -3.0700    10.0520    10.2710 ha         1 LWT       0.121000
     41 H18         -1.1180    10.8630    11.5900 ha         1 LWT       0.122000
     42 H19         -0.3590     9.5870    13.5840 ha         1 LWT       0.132000
     43 S           -5.2840     0.8810    17.0430 sy         1 LWT       1.134600
@<TRIPOS>BOND
     1     1     2 ar  
     2     1    21 ar  
     3     1    24 1   
     4     2     3 1   
     5     2    19 ar  
     6     3     5 1   
     7     3    17 1   
     8     3    25 1   
     9     4    26 1   
    10     4    27 1   
    11     4    43 1   
    12     5     6 1   
    13     5     9 1   
    14     5    28 1   
    15     6     7 1   
    16     6    10 1   
    17     6    29 1   
    18     7     8 1   
    19     7    30 1   
    20     7    31 1   
    21     8     9 1   
    22     8    32 1   
    23     8    33 1   
    24     9    34 1   
    25     9    35 1   
    26    10    11 ar  
    27    10    18 ar  
    28    11    12 ar  
    29    11    17 1   
    30    12    13 ar  
    31    12    36 1   
    32    13    16 ar  
    33    13    37 1   
    34    14    43 2   
    35    15    43 2   
    36    16    18 ar  
    37    16    43 1   
    38    17    38 1   
    39    18    39 1   
    40    19    20 1   
    41    19    23 ar  
    42    21    22 ar  
    43    21    40 1   
    44    22    23 ar  
    45    22    41 1   
    46    23    42 1   
@<TRIPOS>SUBSTRUCTURE
     1 LWT         1 TEMP              0 ****  ****    0 ROOT
