@<TRIPOS>MOLECULE
LWU
   47    49     1     0     0
SMALL
No Charge or Current Charge


@<TRIPOS>ATOM
      1 C12        200.5070    97.5830     6.6410 c3         1 LWU       0.083500
      2 C02        197.9270    97.0160     9.0760 c          1 LWU       0.609100
      3 C03        197.8680    96.2700    10.4120 c3         1 LWU      -0.086400
      4 C05        196.0570    94.5520    10.3450 ca         1 LWU       0.005200
      5 C06        194.7720    94.0940    10.6960 ca         1 LWU      -0.112500
      6 C07        193.9320    94.8990    11.4880 ca         1 LWU       0.019000
      7 C08        194.3870    96.1580    11.9200 ca         1 LWU      -0.112500
      8 C09        195.6750    96.6000    11.5600 ca         1 LWU      -0.045500
      9 C13        200.6570    98.3550     5.3350 ca         1 LWU       0.115300
     10 C14        199.7060    98.2520     4.3050 ca         1 LWU      -0.178000
     11 C15        199.9240    99.0020     3.1350 ca         1 LWU       0.099300
     12 C16        198.9340    98.9510     1.9570 c3         1 LWU       0.345000
     13 C20        201.8880    99.8380     4.0490 cp         1 LWU       0.230500
     14 C21        203.1060   100.7190     3.9060 cp         1 LWU      -0.168500
     15 C22        203.3580   101.4520     2.7120 ca         1 LWU      -0.062000
     16 C23        204.4930   102.2710     2.5810 ca         1 LWU      -0.123000
     17 C24        205.4090   102.3830     3.6380 ca         1 LWU      -0.079000
     18 C25        205.1880   101.6720     4.8260 ca         1 LWU      -0.123000
     19 C26        204.0540   100.8520     4.9610 ca         1 LWU      -0.062000
     20 N04        196.5160    95.8020    10.7760 na         1 LWU       0.079300
     21 N10        199.2000    97.4680     8.7250 ns         1 LWU      -0.371300
     22 N11        199.4930    98.2000     7.5250 n7         1 LWU      -0.602400
     23 N19        201.0170    99.7910     3.0160 nb         1 LWU      -0.187000
     24 N27        201.7410    99.1470     5.2020 nb         1 LWU      -0.192000
     25 O01        196.9430    97.2010     8.3700 o          1 LWU      -0.532100
     26 O17        199.4890    98.2860     0.8380 oh         1 LWU      -0.673500
     27 O18        198.6040   100.2450     1.4920 oh         1 LWU      -0.673500
     28 H1         200.2230    96.5490     6.4020 h1         1 LWU       0.067700
     29 H2         201.4810    97.5390     7.1490 h1         1 LWU       0.067700
     30 H3         198.5490    95.4130    10.3500 h1         1 LWU       0.110200
     31 H4         198.2460    96.9430    11.1910 h1         1 LWU       0.110200
     32 H6         194.4280    93.1200    10.3540 ha         1 LWU       0.180000
     33 H7         192.9370    94.5510    11.7620 ha         1 LWU       0.172000
     34 H8         193.7440    96.7890    12.5300 ha         1 LWU       0.180000
     35 H9         196.0490    97.5750    11.8790 h4         1 LWU       0.185000
     36 H10        198.8310    97.6160     4.4150 ha         1 LWU       0.153000
     37 H11        202.6720   101.3910     1.8690 ha         1 LWU       0.128000
     38 H12        204.6610   102.8200     1.6580 ha         1 LWU       0.120500
     39 H13        206.2870   103.0170     3.5350 ha         1 LWU       0.120000
     40 H14        205.8960   101.7570     5.6480 ha         1 LWU       0.120500
     41 H15        203.9180   100.3180     5.8990 ha         1 LWU       0.128000
     42 H16        199.9360    97.2660     9.4010 hn         1 LWU       0.312500
     43 H17        199.7170    99.1940     7.7040 hn         1 LWU       0.445000
     44 H18        198.7260    98.0440     0.2700 ho         1 LWU       0.473500
     45 H19        199.4470   100.7450     1.5140 ho         1 LWU       0.473500
     46 H20        198.0140    98.4340     2.2630 h2         1 LWU       0.064700
     47 H5         196.7240    93.9480     9.7290 h4         1 LWU       0.185000
@<TRIPOS>BOND
     1     1     9 1   
     2     1    22 1   
     3     1    28 1   
     4     1    29 1   
     5     2     3 1   
     6     2    21 1   
     7     2    25 2   
     8     3    20 1   
     9     3    30 1   
    10     3    31 1   
    11     4     5 ar  
    12     4    20 2   
    13     4    47 1   
    14     5     6 ar  
    15     5    32 1   
    16     6     7 ar  
    17     6    33 1   
    18     7     8 ar  
    19     7    34 1   
    20     8    20 1   
    21     8    35 1   
    22     9    10 ar  
    23     9    24 ar  
    24    10    11 ar  
    25    10    36 1   
    26    11    12 1   
    27    11    23 ar  
    28    12    26 1   
    29    12    27 1   
    30    12    46 1   
    31    13    14 1   
    32    13    23 ar  
    33    13    24 ar  
    34    14    15 ar  
    35    14    19 ar  
    36    15    16 ar  
    37    15    37 1   
    38    16    17 ar  
    39    16    38 1   
    40    17    18 ar  
    41    17    39 1   
    42    18    19 ar  
    43    18    40 1   
    44    19    41 1   
    45    21    22 1   
    46    21    42 1   
    47    22    43 1   
    48    26    44 1   
    49    27    45 1   
@<TRIPOS>SUBSTRUCTURE
     1 LWU         1 TEMP              0 ****  ****    0 ROOT
