@<TRIPOS>MOLECULE
LWU
   47    49     1     0     0
SMALL
abcg2


@<TRIPOS>ATOM
      1 C12        200.0930    98.9930     7.3810 c3         1 LWU       0.083500
      2 C02        197.5180    97.7060     9.1030 c          1 LWU       0.609100
      3 C03        197.2710    97.2250    10.5340 c3         1 LWU      -0.086400
      4 C05        197.4010    94.8110    10.5800 ca         1 LWU       0.005200
      5 C06        196.8360    93.5630    10.4790 ca         1 LWU      -0.112500
      6 C07        195.4660    93.4540    10.2810 ca         1 LWU       0.019000
      7 C08        194.7010    94.6060    10.1900 ca         1 LWU      -0.112500
      8 C09        195.3160    95.8320    10.2950 ca         1 LWU      -0.045500
      9 C13        200.2800    99.3800     5.9410 ca         1 LWU       0.115300
     10 C14        199.2200    99.5050     5.0560 ca         1 LWU      -0.178000
     11 C15        199.5440    99.8560     3.7560 ca         1 LWU       0.099300
     12 C16        198.4760   100.0090     2.6880 c3         1 LWU       0.345000
     13 C20        201.7530    99.8770     4.2780 cp         1 LWU       0.230500
     14 C21        203.1530   100.0610     3.8420 cp         1 LWU      -0.168500
     15 C22        203.4480   100.3810     2.5160 ca         1 LWU      -0.062000
     16 C23        204.7620   100.5480     2.1090 ca         1 LWU      -0.123000
     17 C24        205.8000   100.3990     3.0200 ca         1 LWU      -0.079000
     18 C25        205.5150   100.0830     4.3420 ca         1 LWU      -0.123000
     19 C26        204.2010    99.9150     4.7510 ca         1 LWU      -0.062000
     20 N04        196.6390    95.9120    10.4980 na         1 LWU       0.079300
     21 N10        198.4420    98.6770     9.0360 ns         1 LWU      -0.371300
     22 N11        198.7440    99.2730     7.8330 n7         1 LWU      -0.602400
     23 N19        200.7930   100.0390     3.3700 nb         1 LWU      -0.187000
     24 N27        201.5350    99.5670     5.5480 nb         1 LWU      -0.192000
     25 O01        196.9000    97.2440     8.1690 o          1 LWU      -0.532100
     26 O17        198.0540    98.7040     2.4110 oh         1 LWU      -0.673500
     27 O18        198.9570   100.6820     1.5810 oh         1 LWU      -0.673500
     28 H1         200.2600    97.9150     7.4590 h1         1 LWU       0.067700
     29 H2         200.8720    99.4780     7.9820 h1         1 LWU       0.067700
     30 H3         198.1890    97.1630    11.1150 h1         1 LWU       0.110200
     31 H4         196.6060    97.9220    11.0460 h1         1 LWU       0.110200
     32 H6         197.4680    92.6910    10.5560 ha         1 LWU       0.180000
     33 H7         195.0010    92.4810    10.2030 ha         1 LWU       0.172000
     34 H8         193.6320    94.5660    10.0380 ha         1 LWU       0.180000
     35 H9         194.7700    96.7620    10.2410 h4         1 LWU       0.185000
     36 H10        198.1980    99.3490     5.3660 ha         1 LWU       0.153000
     37 H11        202.6460   100.4970     1.8000 ha         1 LWU       0.128000
     38 H12        204.9770   100.7940     1.0770 ha         1 LWU       0.120500
     39 H13        206.8260   100.5290     2.7010 ha         1 LWU       0.120000
     40 H14        206.3180    99.9660     5.0580 ha         1 LWU       0.120500
     41 H15        203.9860    99.6700     5.7820 ha         1 LWU       0.128000
     42 H16        198.9520    98.9540     9.8670 hn         1 LWU       0.312500
     43 H17        198.5790   100.2700     7.9070 hn         1 LWU       0.445000
     44 H18        197.2240    98.7430     1.9220 ho         1 LWU       0.473500
     45 H19        199.8970   100.4710     1.4820 ho         1 LWU       0.473500
     46 H20        197.6480   100.6060     3.0860 h2         1 LWU       0.064700
     47 H5         198.4600    94.9620    10.7330 h4         1 LWU       0.185000
@<TRIPOS>BOND
     1     1     9 1   
     2     1    22 1   
     3     1    28 1   
     4     1    29 1   
     5     2     3 1   
     6     2    21 1   
     7     2    25 2   
     8     3    20 1   
     9     3    30 1   
    10     3    31 1   
    11     4     5 ar  
    12     4    20 2   
    13     4    47 1   
    14     5     6 ar  
    15     5    32 1   
    16     6     7 ar  
    17     6    33 1   
    18     7     8 ar  
    19     7    34 1   
    20     8    20 1   
    21     8    35 1   
    22     9    10 ar  
    23     9    24 ar  
    24    10    11 ar  
    25    10    36 1   
    26    11    12 1   
    27    11    23 ar  
    28    12    26 1   
    29    12    27 1   
    30    12    46 1   
    31    13    14 1   
    32    13    23 ar  
    33    13    24 ar  
    34    14    15 ar  
    35    14    19 ar  
    36    15    16 ar  
    37    15    37 1   
    38    16    17 ar  
    39    16    38 1   
    40    17    18 ar  
    41    17    39 1   
    42    18    19 ar  
    43    18    40 1   
    44    19    41 1   
    45    21    22 1   
    46    21    42 1   
    47    22    43 1   
    48    26    44 1   
    49    27    45 1   
@<TRIPOS>SUBSTRUCTURE
     1 LWU         1 TEMP              0 ****  ****    0 ROOT
