@<TRIPOS>MOLECULE
LWV
   27    28     1     0     0
SMALL
No Charge or Current Charge


@<TRIPOS>ATOM
      1 N1          25.4980   -19.0280   -17.5440 nh         1 LWV      -0.811400
      2 C4          27.1820   -20.7190   -18.3330 ca         1 LWV       0.266000
      3 C5          27.5840   -22.0660   -18.3840 ca         1 LWV      -0.165000
      4 C6          26.1000   -18.1050   -16.5280 c6         1 LWV       0.168300
      5 C7          25.2020   -16.8590   -16.2560 c6         1 LWV       0.146100
      6 C8          24.1070   -17.0780   -18.3890 c6         1 LWV       0.146100
      7 N           27.9870   -19.7750   -18.9450 nv         1 LWV      -1.059000
      8 C           26.8090   -23.0670   -17.7740 ca         1 LWV      -0.089000
      9 O           24.8390   -16.2040   -17.4950 os         1 LWV      -0.457000
     10 C1          25.6240   -22.7260   -17.1040 ca         1 LWV      -0.134000
     11 C2          25.2100   -21.3840   -17.0430 ca         1 LWV      -0.120000
     12 C3          25.9710   -20.3670   -17.6500 ca         1 LWV       0.215000
     13 C9          24.9570   -18.3320   -18.7580 c6         1 LWV       0.168300
     14 H1          28.5000   -22.3410   -18.8990 ha         1 LWV       0.111000
     15 H2          26.2530   -18.6380   -15.5780 h1         1 LWV       0.050200
     16 H3          27.0870   -17.7600   -16.8700 h1         1 LWV       0.050200
     17 H4          25.7390   -16.1460   -15.6150 h1         1 LWV       0.047950
     18 H5          24.2870   -17.1670   -15.7300 h1         1 LWV       0.047950
     19 H6          23.8450   -16.5230   -19.3010 h1         1 LWV       0.047950
     20 H7          23.1730   -17.3910   -17.9010 h1         1 LWV       0.047950
     21 H8          27.7700   -18.7950   -18.7820 hn         1 LWV       0.444000
     22 H9          28.9370   -20.0140   -19.2200 hn         1 LWV       0.444000
     23 H10         27.1290   -24.1060   -17.8200 ha         1 LWV       0.111000
     24 H11         25.0250   -23.5010   -16.6300 ha         1 LWV       0.113000
     25 H12         24.2920   -21.1270   -16.5210 ha         1 LWV       0.110000
     26 H13         24.3260   -19.0210   -19.3390 h1         1 LWV       0.050200
     27 H14         25.7810   -18.0160   -19.4130 h1         1 LWV       0.050200
@<TRIPOS>BOND
     1     1     4 1   
     2     1    12 1   
     3     1    13 1   
     4     2     3 ar  
     5     2     7 1   
     6     2    12 ar  
     7     3     8 ar  
     8     3    14 1   
     9     4     5 1   
    10     4    15 1   
    11     4    16 1   
    12     5     9 1   
    13     5    17 1   
    14     5    18 1   
    15     6     9 1   
    16     6    13 1   
    17     6    19 1   
    18     6    20 1   
    19     7    21 1   
    20     7    22 1   
    21     8    10 ar  
    22     8    23 1   
    23    10    11 ar  
    24    10    24 1   
    25    11    12 ar  
    26    11    25 1   
    27    13    26 1   
    28    13    27 1   
@<TRIPOS>SUBSTRUCTURE
     1 LWV         1 TEMP              0 ****  ****    0 ROOT
