@<TRIPOS>MOLECULE
LWV
   27    28     1     0     0
SMALL
bcc


@<TRIPOS>ATOM
      1 N1          25.9090   -18.8520   -17.5410 nh         1 LWV      -0.673000
      2 C4          27.1690   -20.6650   -18.5190 ca         1 LWV       0.127600
      3 C5          27.4430   -22.0280   -18.6190 ca         1 LWV      -0.183000
      4 C6          25.3960   -18.3290   -16.2900 c6         1 LWV       0.168300
      5 C7          25.3240   -16.8180   -16.3800 c6         1 LWV       0.122900
      6 C8          24.1270   -17.3670   -18.3550 c6         1 LWV       0.122900
      7 N           27.8340   -19.7390   -19.3060 nv         1 LWV      -0.810200
      8 C           26.7840   -22.9530   -17.8200 ca         1 LWV      -0.107000
      9 O           24.4590   -16.3720   -17.4120 os         1 LWV      -0.410600
     10 C1          25.8400   -22.5250   -16.9000 ca         1 LWV      -0.152000
     11 C2          25.5410   -21.1690   -16.8090 ca         1 LWV      -0.138000
     12 C3          26.1780   -20.2290   -17.6130 ca         1 LWV       0.076600
     13 C9          25.3170   -18.2290   -18.7330 c6         1 LWV       0.168300
     14 H1          28.2060   -22.3620   -19.3130 ha         1 LWV       0.129000
     15 H2          24.4100   -18.7280   -16.0130 h1         1 LWV       0.050200
     16 H3          26.0810   -18.5960   -15.4810 h1         1 LWV       0.050200
     17 H4          26.3340   -16.4250   -16.5480 h1         1 LWV       0.047950
     18 H5          24.9670   -16.4140   -15.4300 h1         1 LWV       0.047950
     19 H6          23.7580   -16.8580   -19.2480 h1         1 LWV       0.047950
     20 H7          23.3100   -18.0030   -17.9890 h1         1 LWV       0.047950
     21 H8          27.9450   -18.8390   -18.8600 hn         1 LWV       0.388800
     22 H9          28.7130   -20.0670   -19.6760 hn         1 LWV       0.388800
     23 H10         27.0270   -24.0040   -17.9090 ha         1 LWV       0.129000
     24 H11         25.3290   -23.2330   -16.2600 ha         1 LWV       0.131000
     25 H12         24.7920   -20.8440   -16.0980 ha         1 LWV       0.128000
     26 H13         24.9710   -18.9920   -19.4350 h1         1 LWV       0.050200
     27 H14         26.0520   -17.6170   -19.2660 h1         1 LWV       0.050200
@<TRIPOS>BOND
     1     1     4 1   
     2     1    12 1   
     3     1    13 1   
     4     2     3 ar  
     5     2     7 1   
     6     2    12 ar  
     7     3     8 ar  
     8     3    14 1   
     9     4     5 1   
    10     4    15 1   
    11     4    16 1   
    12     5     9 1   
    13     5    17 1   
    14     5    18 1   
    15     6     9 1   
    16     6    13 1   
    17     6    19 1   
    18     6    20 1   
    19     7    21 1   
    20     7    22 1   
    21     8    10 ar  
    22     8    23 1   
    23    10    11 ar  
    24    10    24 1   
    25    11    12 ar  
    26    11    25 1   
    27    13    26 1   
    28    13    27 1   
@<TRIPOS>SUBSTRUCTURE
     1 LWV         1 TEMP              0 ****  ****    0 ROOT
