@<TRIPOS>MOLECULE
LWW
   45    48     1     0     0
SMALL
No Charge or Current Charge


@<TRIPOS>ATOM
      1 C4          -4.3090     1.1260     0.3360 ca         1 LWW      -0.261500
      2 C5          -4.2580     1.9840    -0.7840 ca         1 LWW      -0.015500
      3 C6          -3.9550     3.3460    -0.6120 ca         1 LWW      -0.129500
      4 C10         -3.0460    -1.3570    -0.1280 ca         1 LWW      -0.257500
      5 C13         -0.4760    -2.4670    -0.5090 ca         1 LWW      -0.063300
      6 C15         -2.2940    -1.8010     0.9790 ca         1 LWW      -0.017000
      7 C20          3.6170    -0.5710     0.2660 cc         1 LWW      -0.158300
      8 C21          4.4270    -0.0520     1.2730 cd         1 LWW      -0.130200
      9 C22          5.2590     1.0060     0.7560 ca         1 LWW      -0.181800
     10 C26          5.5850     2.0650    -1.3560 ca         1 LWW      -0.186000
     11 C1          -3.6980     3.8570     0.6710 ca         1 LWW      -0.058000
     12 C2          -3.7420     3.0040     1.7870 ca         1 LWW      -0.129500
     13 C3          -4.0450     1.6400     1.6230 ca         1 LWW      -0.015500
     14 S7          -4.6800    -0.6280     0.1180 sy         1 LWW       1.020000
     15 O8          -5.2130    -1.1360     1.3910 o          1 LWW      -0.524500
     16 O9          -5.4340    -0.7770    -1.1350 o          1 LWW      -0.524500
     17 C11         -2.5050    -1.4630    -1.4250 ca         1 LWW      -0.017000
     18 C12         -1.2260    -2.0160    -1.6120 ca         1 LWW      -0.117000
     19 C14         -1.0160    -2.3540     0.7860 ca         1 LWW      -0.117000
     20 C16          0.9110    -3.0600    -0.7140 c3         1 LWW       0.140300
     21 N17          1.9490    -2.0270    -0.6600 ns         1 LWW      -0.508900
     22 C18          2.6420    -1.6740     0.4750 c          1 LWW       0.637300
     23 O19          2.4620    -2.2280     1.5510 o          1 LWW      -0.584100
     24 C23          6.2280     1.8360     1.3420 ca         1 LWW       0.406900
     25 N24          6.8750     2.7740     0.5980 nb         1 LWW      -0.691000
     26 C25          6.5530     2.8780    -0.7230 ca         1 LWW       0.355900
     27 C27          4.9410     1.1140    -0.5620 ca         1 LWW      -0.009200
     28 N28          3.9640     0.1870    -0.8860 na         1 LWW      -0.215700
     29 H5          -4.4510     1.6020    -1.7850 ha         1 LWW       0.135500
     30 H6          -3.9180     4.0060    -1.4760 ha         1 LWW       0.120000
     31 H15         -2.6910    -1.7180     1.9900 ha         1 LWW       0.138000
     32 H21          4.4250    -0.4010     2.3050 ha         1 LWW       0.227000
     33 H26          5.3590     2.1820    -2.4120 ha         1 LWW       0.125000
     34 H1          -3.4630     4.9120     0.8010 ha         1 LWW       0.117000
     35 H2          -3.5400     3.3980     2.7800 ha         1 LWW       0.120000
     36 H3          -4.0710     0.9910     2.4970 ha         1 LWW       0.135500
     37 H11         -3.0670    -1.1160    -2.2910 ha         1 LWW       0.138000
     38 H12         -0.8180    -2.0910    -2.6170 ha         1 LWW       0.126000
     39 H14         -0.4430    -2.6910     1.6460 ha         1 LWW       0.126000
     40 H16          1.1070    -3.8240     0.0500 h1         1 LWW       0.070200
     41 H16A         0.9590    -3.5560    -1.6920 h1         1 LWW       0.070200
     42 HN17         2.1570    -1.5130    -1.5040 hn         1 LWW       0.311500
     43 H23          6.4900     1.7580     2.3970 h4         1 LWW       0.025100
     44 H25          7.0880     3.6380    -1.2910 h4         1 LWW       0.019100
     45 HN28         3.5670     0.0790    -1.8130 hn         1 LWW       0.350000
@<TRIPOS>BOND
     1     1     2 ar  
     2     1    13 ar  
     3     1    14 1   
     4     2     3 ar  
     5     2    29 1   
     6     3    11 ar  
     7     3    30 1   
     8     4     6 ar  
     9     4    14 1   
    10     4    17 ar  
    11     5    18 ar  
    12     5    19 ar  
    13     5    20 1   
    14     6    19 ar  
    15     6    31 1   
    16     7     8 2   
    17     7    22 1   
    18     7    28 1   
    19     8     9 1   
    20     8    32 1   
    21     9    24 ar  
    22     9    27 ar  
    23    10    26 ar  
    24    10    27 ar  
    25    10    33 1   
    26    11    12 ar  
    27    11    34 1   
    28    12    13 ar  
    29    12    35 1   
    30    13    36 1   
    31    14    15 2   
    32    14    16 2   
    33    17    18 ar  
    34    17    37 1   
    35    18    38 1   
    36    19    39 1   
    37    20    21 1   
    38    20    40 1   
    39    20    41 1   
    40    21    22 1   
    41    21    42 1   
    42    22    23 2   
    43    24    25 ar  
    44    24    43 1   
    45    25    26 ar  
    46    26    44 1   
    47    27    28 1   
    48    28    45 1   
@<TRIPOS>SUBSTRUCTURE
     1 LWW         1 TEMP              0 ****  ****    0 ROOT
