@<TRIPOS>MOLECULE
LWW
   45    48     1     0     0
SMALL
abcg2


@<TRIPOS>ATOM
      1 C4          -4.3400     1.1330     0.3120 ca         1 LWW      -0.261500
      2 C5          -4.7180     1.7200    -0.8870 ca         1 LWW      -0.015500
      3 C6          -4.5570     3.0900    -1.0420 ca         1 LWW      -0.129500
      4 C10         -2.9440    -1.2740     0.0900 ca         1 LWW      -0.257500
      5 C13         -0.4500    -2.2770    -0.5830 ca         1 LWW      -0.063300
      6 C15         -1.9920    -1.4610     1.0850 ca         1 LWW      -0.017000
      7 C20          3.7730    -0.7010     0.3250 cc         1 LWW      -0.158300
      8 C21          4.9040    -0.6860     1.0910 cd         1 LWW      -0.130200
      9 C22          5.5870     0.5240     0.7830 ca         1 LWW      -0.181800
     10 C26          5.2120     2.4500    -0.6570 ca         1 LWW      -0.186000
     11 C1          -4.0280     3.8520    -0.0080 ca         1 LWW      -0.058000
     12 C2          -3.6580     3.2490     1.1880 ca         1 LWW      -0.129500
     13 C3          -3.8140     1.8830     1.3570 ca         1 LWW      -0.015500
     14 S7          -4.5330    -0.6180     0.5220 sy         1 LWW       1.020000
     15 O8          -4.7600    -0.8820     1.9390 o          1 LWW      -0.524500
     16 O9          -5.5020    -1.0890    -0.4630 o          1 LWW      -0.524500
     17 C11         -2.6720    -1.5870    -1.2330 ca         1 LWW      -0.017000
     18 C12         -1.4200    -2.0860    -1.5600 ca         1 LWW      -0.117000
     19 C14         -0.7490    -1.9620     0.7420 ca         1 LWW      -0.117000
     20 C16          0.9130    -2.8070    -0.9530 c3         1 LWW       0.140300
     21 N17          1.9540    -1.8180    -0.7740 ns         1 LWW      -0.508900
     22 C18          2.7670    -1.7850     0.2960 c          1 LWW       0.637300
     23 O19          2.7200    -2.5970     1.2090 o          1 LWW      -0.584100
     24 C23          6.7740     1.1270     1.2080 ca         1 LWW       0.406900
     25 N24          7.1670     2.2980     0.7510 nb         1 LWW      -0.691000
     26 C25          6.4000     2.9330    -0.1540 ca         1 LWW       0.355900
     27 C27          4.8070     1.2070    -0.1720 ca         1 LWW      -0.009200
     28 N28          3.7220     0.4420    -0.4430 na         1 LWW      -0.215700
     29 H5          -5.1360     1.1310    -1.6920 ha         1 LWW       0.135500
     30 H6          -4.8530     3.5600    -1.9700 ha         1 LWW       0.120000
     31 H15         -2.2120    -1.2280     2.1190 ha         1 LWW       0.138000
     32 H21          5.2160    -1.4610     1.7720 ha         1 LWW       0.227000
     33 H26          4.6410     3.0090    -1.3860 ha         1 LWW       0.125000
     34 H1          -3.9060     4.9190    -0.1350 ha         1 LWW       0.117000
     35 H2          -3.2500     3.8440     1.9940 ha         1 LWW       0.120000
     36 H3          -3.5290     1.4180     2.2910 ha         1 LWW       0.135500
     37 H11         -3.4160    -1.4520    -2.0060 ha         1 LWW       0.138000
     38 H12         -1.2000    -2.3310    -2.5910 ha         1 LWW       0.126000
     39 H14         -0.0100    -2.1170     1.5180 ha         1 LWW       0.126000
     40 H16          1.1550    -3.6830    -0.3510 h1         1 LWW       0.070200
     41 H16A         0.9180    -3.1220    -1.9960 h1         1 LWW       0.070200
     42 HN17         2.0990    -1.1780    -1.5380 hn         1 LWW       0.311500
     43 H23          7.4110     0.6380     1.9380 h4         1 LWW       0.025100
     44 H25          6.7690     3.8930    -0.4950 h4         1 LWW       0.019100
     45 HN28         2.9470     0.7430    -1.0120 hn         1 LWW       0.350000
@<TRIPOS>BOND
     1     1     2 ar  
     2     1    13 ar  
     3     1    14 1   
     4     2     3 ar  
     5     2    29 1   
     6     3    11 ar  
     7     3    30 1   
     8     4     6 ar  
     9     4    14 1   
    10     4    17 ar  
    11     5    18 ar  
    12     5    19 ar  
    13     5    20 1   
    14     6    19 ar  
    15     6    31 1   
    16     7     8 2   
    17     7    22 1   
    18     7    28 1   
    19     8     9 1   
    20     8    32 1   
    21     9    24 ar  
    22     9    27 ar  
    23    10    26 ar  
    24    10    27 ar  
    25    10    33 1   
    26    11    12 ar  
    27    11    34 1   
    28    12    13 ar  
    29    12    35 1   
    30    13    36 1   
    31    14    15 2   
    32    14    16 2   
    33    17    18 ar  
    34    17    37 1   
    35    18    38 1   
    36    19    39 1   
    37    20    21 1   
    38    20    40 1   
    39    20    41 1   
    40    21    22 1   
    41    21    42 1   
    42    22    23 2   
    43    24    25 ar  
    44    24    43 1   
    45    25    26 ar  
    46    26    44 1   
    47    27    28 1   
    48    28    45 1   
@<TRIPOS>SUBSTRUCTURE
     1 LWW         1 TEMP              0 ****  ****    0 ROOT
