@<TRIPOS>MOLECULE
LWX
   72    77     1     0     0
SMALL
abcg2


@<TRIPOS>ATOM
      1 C14         38.0410    29.3520    81.2120 ca         1 LWX       0.294000
      2 C11         39.4100    27.3830    81.6320 ca         1 LWX      -0.058300
      3 C10         39.1990    30.1350    81.2040 ca         1 LWX      -0.147000
      4 C12         39.4760    25.8900    81.8010 c3         1 LWX      -0.043800
      5 C13         38.1670    27.9770    81.4200 ca         1 LWX      -0.122000
      6 C3          43.3140    26.2480    83.2980 c6         1 LWX       0.159800
      7 C4          42.0850    27.1380    83.2400 c6         1 LWX       0.185800
      8 C5          44.2170    27.3710    81.3880 c6         1 LWX       0.159800
      9 C6          43.0010    28.2810    81.3360 c6         1 LWX       0.185800
     10 C8          40.5710    28.1800    81.6490 ca         1 LWX       0.240000
     11 C9          40.4370    29.5550    81.4230 ca         1 LWX      -0.121000
     12 C16         35.5380    29.6000    81.0020 ca         1 LWX       0.426900
     13 C18         33.3650    30.2530    80.8480 ca         1 LWX       0.205900
     14 C19         32.9340    28.9310    81.0250 ca         1 LWX      -0.294800
     15 C20         33.9570    27.9740    81.1750 ca         1 LWX       0.312900
     16 C22         34.6960    25.6650    81.5370 c3         1 LWX       0.077000
     17 C23         35.2630    25.6830    82.9590 c5         1 LWX       0.146300
     18 C25         34.2030    24.2870    84.5430 c5         1 LWX       0.153600
     19 C26         35.1820    23.4320    83.7440 c5         1 LWX      -0.112400
     20 C27         36.1680    24.4780    83.2120 c5         1 LWX      -0.104400
     21 C28         32.2980    26.1990    81.3540 c          1 LWX       0.587200
     22 C29         31.2570    27.2070    81.1830 cc         1 LWX      -0.159400
     23 C30         29.8460    26.7550    81.2020 ca         1 LWX      -0.005800
     24 C31         29.2420    26.1140    80.1190 ca         1 LWX       0.017100
     25 C33         27.9160    25.7060    80.1480 ca         1 LWX      -0.089000
     26 C34         27.1580    25.9430    81.2890 ca         1 LWX      -0.105000
     27 C35         27.7280    26.5860    82.3820 ca         1 LWX      -0.102000
     28 C36         29.0580    26.9850    82.3330 ca         1 LWX      -0.093000
     29 C37         31.5800    28.5160    81.0420 cd         1 LWX      -0.030200
     30 N2          44.4800    26.9360    82.7560 n3         1 LWX      -0.720600
     31 N7          41.8360    27.5790    81.8640 nh         1 LWX      -0.781400
     32 N15         36.8270    30.0230    80.9970 nu         1 LWX      -0.915900
     33 N17         34.6330    30.6040    80.8330 nb         1 LWX      -0.263000
     34 N21         33.6280    26.6530    81.3420 n          1 LWX      -0.350300
     35 N39         35.2470    28.3090    81.1620 nb         1 LWX      -0.298000
     36 O24         34.2090    25.5910    83.9300 os         1 LWX      -0.465000
     37 O38         32.0510    25.0040    81.5020 o          1 LWX      -0.523000
     38 BR1         30.2420    25.8140    78.5090 br         1 LWX      -0.108100
     39 H1          39.1250    31.2030    81.0340 ha         1 LWX       0.113000
     40 H2          39.4460    25.5990    82.8550 hc         1 LWX       0.044367
     41 H3          38.6280    25.4140    81.3110 hc         1 LWX       0.044367
     42 H4          40.4020    25.4930    81.3840 hc         1 LWX       0.044367
     43 H5          37.2890    27.3570    81.3960 ha         1 LWX       0.145000
     44 H6          45.8650    25.8350    83.8720 h1         1 LWX       0.032033
     45 H7          45.5780    25.1790    82.2450 h1         1 LWX       0.032033
     46 H8          46.5320    26.6630    82.4540 h1         1 LWX       0.032033
     47 H9          43.1090    25.3160    82.7420 h1         1 LWX       0.039450
     48 H10         43.5170    25.9760    84.3370 h1         1 LWX       0.039450
     49 H11         42.2350    28.0110    83.8950 h1         1 LWX       0.043200
     50 H12         41.2220    26.5900    83.6120 h1         1 LWX       0.043200
     51 H13         44.0510    26.5060    80.7230 h1         1 LWX       0.039450
     52 H14         45.0900    27.9130    81.0180 h1         1 LWX       0.039450
     53 H15         43.2230    29.1960    81.9070 h1         1 LWX       0.043200
     54 H16         42.8020    28.5680    80.3030 h1         1 LWX       0.043200
     55 H17         41.3120    30.1890    81.4240 ha         1 LWX       0.117000
     56 H18         32.6300    31.0400    80.7150 h4         1 LWX       0.027100
     57 H19         34.2650    24.6950    81.3130 h1         1 LWX       0.077200
     58 H20         35.4940    25.8770    80.8290 h1         1 LWX       0.077200
     59 H21         35.7760    26.6300    83.1270 h1         1 LWX       0.079700
     60 H22         33.1830    23.9000    84.5280 h1         1 LWX       0.048700
     61 H23         34.5240    24.3910    85.5850 h1         1 LWX       0.048700
     62 H24         34.6710    22.9320    82.9190 hc         1 LWX       0.057200
     63 H25         35.6610    22.6710    84.3580 hc         1 LWX       0.057200
     64 H26         36.6930    24.1560    82.3130 hc         1 LWX       0.054700
     65 H27         36.9130    24.7270    83.9700 hc         1 LWX       0.054700
     66 H28         27.4790    25.2170    79.2890 ha         1 LWX       0.130000
     67 H29         26.1230    25.6270    81.3170 ha         1 LWX       0.117000
     68 H30         27.1410    26.7760    83.2710 ha         1 LWX       0.118000
     69 H31         29.5090    27.4800    83.1840 ha         1 LWX       0.120000
     70 H32         30.8020    29.2610    80.9240 ha         1 LWX       0.192000
     71 H34         36.9070    31.0200    80.8620 hn         1 LWX       0.513000
     72 C1          45.6730    26.1080    82.8330 c3         1 LWX       0.152100
@<TRIPOS>BOND
     1     1     3 ar  
     2     1     5 ar  
     3     1    32 1   
     4     2     4 1   
     5     2     5 ar  
     6     2    10 ar  
     7     3    11 ar  
     8     3    39 1   
     9     4    40 1   
    10     4    41 1   
    11     4    42 1   
    12     5    43 1   
    13     6     7 1   
    14     6    30 1   
    15     6    47 1   
    16     6    48 1   
    17     7    31 1   
    18     7    49 1   
    19     7    50 1   
    20     8     9 1   
    21     8    30 1   
    22     8    51 1   
    23     8    52 1   
    24     9    31 1   
    25     9    53 1   
    26     9    54 1   
    27    10    11 ar  
    28    10    31 1   
    29    11    55 1   
    30    12    32 1   
    31    12    33 ar  
    32    12    35 ar  
    33    13    14 ar  
    34    13    33 ar  
    35    13    56 1   
    36    14    15 ar  
    37    14    29 1   
    38    15    34 1   
    39    15    35 ar  
    40    16    17 1   
    41    16    34 1   
    42    16    57 1   
    43    16    58 1   
    44    17    20 1   
    45    17    36 1   
    46    17    59 1   
    47    18    19 1   
    48    18    36 1   
    49    18    60 1   
    50    18    61 1   
    51    19    20 1   
    52    19    62 1   
    53    19    63 1   
    54    20    64 1   
    55    20    65 1   
    56    21    22 1   
    57    21    34 1   
    58    21    37 2   
    59    22    23 1   
    60    22    29 2   
    61    23    24 ar  
    62    23    28 ar  
    63    24    25 ar  
    64    24    38 1   
    65    25    26 ar  
    66    25    66 1   
    67    26    27 ar  
    68    26    67 1   
    69    27    28 ar  
    70    27    68 1   
    71    28    69 1   
    72    29    70 1   
    73    30    72 1   
    74    32    71 1   
    75    44    72 1   
    76    45    72 1   
    77    46    72 1   
@<TRIPOS>SUBSTRUCTURE
     1 LWX         1 TEMP              0 ****  ****    0 ROOT
