@<TRIPOS>MOLECULE
LWX
   72    77     1     0     0
SMALL
No Charge or Current Charge


@<TRIPOS>ATOM
      1 C14         37.9800    29.4160    81.0330 ca         1 LWX       0.294000
      2 C11         39.4560    27.4570    81.1200 ca         1 LWX      -0.058300
      3 C10         39.0220    30.2070    81.5400 ca         1 LWX      -0.147000
      4 C12         39.6550    25.9650    80.8570 c3         1 LWX      -0.043800
      5 C13         38.2120    28.0460    80.8090 ca         1 LWX      -0.122000
      6 C3          43.1440    26.0170    83.2890 c6         1 LWX       0.159800
      7 C4          41.9040    26.9700    83.2880 c6         1 LWX       0.185800
      8 C5          44.2390    27.3910    81.5840 c6         1 LWX       0.159800
      9 C6          43.0160    28.3660    81.5570 c6         1 LWX       0.185800
     10 C8          40.4960    28.2580    81.6540 ca         1 LWX       0.240000
     11 C9          40.2670    29.6340    81.8520 ca         1 LWX      -0.121000
     12 C16         35.4320    29.6000    80.7710 ca         1 LWX       0.426900
     13 C18         33.2330    30.1520    80.5000 ca         1 LWX       0.205900
     14 C19         32.8710    28.8400    80.8540 ca         1 LWX      -0.294800
     15 C20         33.8980    27.9400    81.1550 ca         1 LWX       0.312900
     16 C22         34.7120    25.6400    81.8260 c3         1 LWX       0.077000
     17 C23         35.3760    25.8480    83.2220 c5         1 LWX       0.146300
     18 C25         34.3710    24.1370    84.4600 c5         1 LWX       0.153600
     19 C26         35.7350    23.5790    83.9470 c5         1 LWX      -0.112400
     20 C27         36.5230    24.8620    83.5490 c5         1 LWX      -0.104400
     21 C28         32.2590    26.1120    81.6000 c          1 LWX       0.587200
     22 C29         31.1970    27.1010    81.2710 cc         1 LWX      -0.159400
     23 C30         29.7770    26.7620    81.2910 ca         1 LWX      -0.005800
     24 C31         29.1970    25.9920    80.2590 ca         1 LWX       0.017100
     25 C33         27.8270    25.6750    80.2970 ca         1 LWX      -0.089000
     26 C34         27.0290    26.1240    81.3630 ca         1 LWX      -0.105000
     27 C35         27.6010    26.8920    82.3910 ca         1 LWX      -0.102000
     28 C36         28.9700    27.2100    82.3540 ca         1 LWX      -0.093000
     29 C37         31.4840    28.4000    80.9160 cd         1 LWX      -0.030200
     30 N2          44.4110    26.7140    82.9080 n3         1 LWX      -0.720600
     31 N7          41.7490    27.6980    81.9910 nh         1 LWX      -0.781400
     32 N15         36.7520    30.0290    80.7550 nu         1 LWX      -0.915900
     33 N17         34.5230    30.5360    80.4590 nb         1 LWX      -0.263000
     34 N21         33.5940    26.5840    81.5200 n          1 LWX      -0.350300
     35 N39         35.1860    28.3280    81.1160 nb         1 LWX      -0.298000
     36 O24         34.4500    25.5710    84.2920 os         1 LWX      -0.465000
     37 O38         31.9930    24.9590    81.9140 o          1 LWX      -0.523000
     38 Br1         30.2490    25.3800    78.7740 br         1 LWX      -0.108100
     39 H1          38.8660    31.2690    81.7130 ha         1 LWX       0.113000
     40 H2          39.6490    25.3970    81.7940 hc         1 LWX       0.044367
     41 H3          38.8640    25.5550    80.2180 hc         1 LWX       0.044367
     42 H4          40.6100    25.7730    80.3540 hc         1 LWX       0.044367
     43 H5          37.4340    27.4290    80.3740 ha         1 LWX       0.145000
     44 H6          45.7100    25.3800    83.9420 h1         1 LWX       0.032033
     45 H7          45.4830    25.0030    82.2170 h1         1 LWX       0.032033
     46 H8          46.5050    26.3770    82.7050 h1         1 LWX       0.032033
     47 H9          42.9450    25.1900    82.5910 h1         1 LWX       0.039450
     48 H10         43.2410    25.5720    84.2900 h1         1 LWX       0.039450
     49 H11         42.0160    27.6950    84.1070 h1         1 LWX       0.043200
     50 H12         41.0050    26.3750    83.5030 h1         1 LWX       0.043200
     51 H13         44.1000    26.6390    80.7940 h1         1 LWX       0.039450
     52 H14         45.1440    27.9600    81.3270 h1         1 LWX       0.039450
     53 H15         43.2330    29.2190    82.2150 h1         1 LWX       0.043200
     54 H16         42.9050    28.7590    80.5350 h1         1 LWX       0.043200
     55 H17         41.0530    30.2600    82.2630 ha         1 LWX       0.117000
     56 H18         32.4860    30.9040    80.2500 h4         1 LWX       0.027100
     57 H19         34.3690    24.6030    81.7350 h1         1 LWX       0.077200
     58 H20         35.4880    25.7570    81.0590 h1         1 LWX       0.077200
     59 H21         35.7180    26.8890    83.3010 h1         1 LWX       0.079700
     60 H22         33.5290    23.7470    83.8730 h1         1 LWX       0.048700
     61 H23         34.1940    23.9060    85.5190 h1         1 LWX       0.048700
     62 H24         35.5840    22.9160    83.0870 hc         1 LWX       0.057200
     63 H25         36.2580    22.9960    84.7130 hc         1 LWX       0.057200
     64 H26         37.2020    24.7010    82.7040 hc         1 LWX       0.054700
     65 H27         37.1260    25.2340    84.3860 hc         1 LWX       0.054700
     66 H28         27.3840    25.0840    79.4990 ha         1 LWX       0.130000
     67 H29         25.9700    25.8780    81.3920 ha         1 LWX       0.117000
     68 H30         26.9840    27.2410    83.2170 ha         1 LWX       0.118000
     69 H31         29.4070    27.8040    83.1540 ha         1 LWX       0.120000
     70 H32         30.6770    29.0900    80.6770 ha         1 LWX       0.192000
     71 H34         36.8140    31.0420    80.6550 hn         1 LWX       0.513000
     72 C1          45.5880    25.8210    82.9430 c3         1 LWX       0.152100
@<TRIPOS>BOND
     1     1     3 ar  
     2     1     5 ar  
     3     1    32 1   
     4     2     4 1   
     5     2     5 ar  
     6     2    10 ar  
     7     3    11 ar  
     8     3    39 1   
     9     4    40 1   
    10     4    41 1   
    11     4    42 1   
    12     5    43 1   
    13     6     7 1   
    14     6    30 1   
    15     6    47 1   
    16     6    48 1   
    17     7    31 1   
    18     7    49 1   
    19     7    50 1   
    20     8     9 1   
    21     8    30 1   
    22     8    51 1   
    23     8    52 1   
    24     9    31 1   
    25     9    53 1   
    26     9    54 1   
    27    10    11 ar  
    28    10    31 1   
    29    11    55 1   
    30    12    32 1   
    31    12    33 ar  
    32    12    35 ar  
    33    13    14 ar  
    34    13    33 ar  
    35    13    56 1   
    36    14    15 ar  
    37    14    29 1   
    38    15    34 1   
    39    15    35 ar  
    40    16    17 1   
    41    16    34 1   
    42    16    57 1   
    43    16    58 1   
    44    17    20 1   
    45    17    36 1   
    46    17    59 1   
    47    18    19 1   
    48    18    36 1   
    49    18    60 1   
    50    18    61 1   
    51    19    20 1   
    52    19    62 1   
    53    19    63 1   
    54    20    64 1   
    55    20    65 1   
    56    21    22 1   
    57    21    34 1   
    58    21    37 2   
    59    22    23 1   
    60    22    29 2   
    61    23    24 ar  
    62    23    28 ar  
    63    24    25 ar  
    64    24    38 1   
    65    25    26 ar  
    66    25    66 1   
    67    26    27 ar  
    68    26    67 1   
    69    27    28 ar  
    70    27    68 1   
    71    28    69 1   
    72    29    70 1   
    73    30    72 1   
    74    32    71 1   
    75    44    72 1   
    76    45    72 1   
    77    46    72 1   
@<TRIPOS>SUBSTRUCTURE
     1 LWX         1 TEMP              0 ****  ****    0 ROOT
