@<TRIPOS>MOLECULE
LWY
   22    22     1     0     0
SMALL
abcg2


@<TRIPOS>ATOM
      1 C           -1.3650    -0.8970    -0.5230 c          1 LWY       0.730000
      2 N            0.3760     0.7950     0.2380 n3         1 LWY      -0.835700
      3 OXT         -2.2860    -1.6090    -0.0660 o          1 LWY      -0.758000
      4 P            1.7260    -0.1750     0.5420 p5         1 LWY       1.440300
      5 C1           2.4560    -0.5000    -1.1050 c3         1 LWY      -0.468100
      6 O1           1.2210    -1.4740     1.1300 o          1 LWY      -0.867500
      7 O2           2.7450     0.6380     1.3170 o          1 LWY      -0.867500
      8 CA          -0.9960     0.3320     0.3260 c5         1 LWY       0.145500
      9 CB          -1.8080     1.5510    -0.1480 c5         1 LWY      -0.080400
     10 CD           0.4740     2.1900    -0.1340 c5         1 LWY       0.254800
     11 CG          -0.9120     2.7390     0.1840 c5         1 LWY      -0.097400
     12 O           -0.7890    -1.0510    -1.6170 o          1 LWY      -0.758000
     13 H1           2.7490     0.4300    -1.5980 hc         1 LWY       0.031033
     14 H1A          3.3510    -1.1190    -1.0130 hc         1 LWY       0.031033
     15 H1B          1.7370    -1.0100    -1.7430 hc         1 LWY       0.031033
     16 HA          -1.2660     0.1110     1.3670 h1         1 LWY       0.024700
     17 HB          -1.9560     1.5020    -1.2310 hc         1 LWY       0.019700
     18 HBA         -2.7930     1.6020     0.3180 hc         1 LWY       0.019700
     19 HD           1.2630     2.6990     0.4250 h1         1 LWY       0.000200
     20 HDA          0.6990     2.3300    -1.2020 h1         1 LWY       0.000200
     21 HG          -1.1580     3.6370    -0.3850 hc         1 LWY       0.001700
     22 HGA         -0.9850     2.9860     1.2460 hc         1 LWY       0.001700
@<TRIPOS>BOND
     1     1     3 1   
     2     1     8 1   
     3     1    12 1   
     4     2     4 1   
     5     2     8 1   
     6     2    10 1   
     7     4     5 1   
     8     4     6 1   
     9     4     7 1   
    10     5    13 1   
    11     5    14 1   
    12     5    15 1   
    13     8     9 1   
    14     8    16 1   
    15     9    11 1   
    16     9    17 1   
    17     9    18 1   
    18    10    11 1   
    19    10    19 1   
    20    10    20 1   
    21    11    21 1   
    22    11    22 1   
@<TRIPOS>SUBSTRUCTURE
     1 LWY         1 TEMP              0 ****  ****    0 ROOT
