@<TRIPOS>MOLECULE
LWY
   22    22     1     0     0
SMALL
No Charge or Current Charge


@<TRIPOS>ATOM
      1 C           -1.0110    -0.4450    -1.2060 c          1 LWY       0.730000
      2 N            0.3270     0.8890     0.7190 n3         1 LWY      -0.835700
      3 OXT         -1.2450    -1.6490    -1.2260 o          1 LWY      -0.758000
      4 P            1.6410    -0.1360     0.8690 p5         1 LWY       1.440300
      5 C1           2.1310    -0.7350    -0.7940 c3         1 LWY      -0.468100
      6 O1           1.2370    -1.2920     1.7230 o          1 LWY      -0.867500
      7 O2           2.7730     0.6590     1.4300 o          1 LWY      -0.867500
      8 CA          -0.9590     0.2980     0.2150 c5         1 LWY       0.145500
      9 CB          -1.8460     1.5850     0.1820 c5         1 LWY      -0.080400
     10 CD           0.5600     2.0650    -0.1250 c5         1 LWY       0.254800
     11 CG          -0.8390     2.7490    -0.1060 c5         1 LWY      -0.097400
     12 O           -0.9140     0.1860    -2.2540 o          1 LWY      -0.758000
     13 H1           2.0860     0.0580    -1.5460 hc         1 LWY       0.031033
     14 H1A          3.1620    -1.0990    -0.7400 hc         1 LWY       0.031033
     15 H1B          1.4930    -1.5670    -1.1030 hc         1 LWY       0.031033
     16 HA          -1.3660    -0.4100     0.9500 h1         1 LWY       0.024700
     17 HB          -2.6480     1.5270    -0.5630 hc         1 LWY       0.019700
     18 HBA         -2.3350     1.7380     1.1510 hc         1 LWY       0.019700
     19 HD           1.3390     2.7260     0.2760 h1         1 LWY       0.000200
     20 HDA          0.8410     1.7930    -1.1500 h1         1 LWY       0.000200
     21 HG          -1.0500     3.2540    -1.0550 hc         1 LWY       0.001700
     22 HGA         -0.8950     3.5120     0.6800 hc         1 LWY       0.001700
@<TRIPOS>BOND
     1     1     3 1   
     2     1     8 1   
     3     1    12 1   
     4     2     4 1   
     5     2     8 1   
     6     2    10 1   
     7     4     5 1   
     8     4     6 1   
     9     4     7 1   
    10     5    13 1   
    11     5    14 1   
    12     5    15 1   
    13     8     9 1   
    14     8    16 1   
    15     9    11 1   
    16     9    17 1   
    17     9    18 1   
    18    10    11 1   
    19    10    19 1   
    20    10    20 1   
    21    11    21 1   
    22    11    22 1   
@<TRIPOS>SUBSTRUCTURE
     1 LWY         1 TEMP              0 ****  ****    0 ROOT
