@<TRIPOS>MOLECULE
LWZ
   23    23     1     0     0
SMALL
abcg2


@<TRIPOS>ATOM
      1 N11         26.8020    11.7730    19.0370 na         1 LWZ      -0.003200
      2 S01         25.0730     9.2700    22.5490 sh         1 LWZ      -0.398300
      3 C02         24.6010     8.3770    21.0310 c3         1 LWZ       0.242300
      4 S03         25.0990     6.6430    21.2390 sh         1 LWZ      -0.398300
      5 C04         23.0970     8.3820    20.7670 c3         1 LWZ      -0.150400
      6 C05         22.4860     9.7710    20.7240 c          1 LWZ       0.600100
      7 O06         21.7460    10.1600    21.6130 o          1 LWZ      -0.577100
      8 N07         22.7900    10.5600    19.6720 ns         1 LWZ      -0.522900
      9 C08         23.5810    10.2390    18.5090 c3         1 LWZ       0.089700
     10 C09         24.9860    10.7470    18.6010 cc         1 LWZ       0.162300
     11 C10         25.5080    11.7390    19.3920 cd         1 LWZ      -0.202000
     12 N12         27.0780    10.8840    18.1080 nd         1 LWZ      -0.187800
     13 N13         25.9850    10.2570    17.8340 nc         1 LWZ      -0.357000
     14 H1          27.5300    12.3730    19.3960 hn         1 LWZ       0.384000
     15 H2          24.9020    10.5200    22.0940 hs         1 LWZ       0.209800
     16 H3          25.1560     8.7960    20.1940 h2         1 LWZ       0.089700
     17 H4          26.4210     6.8410    21.1930 hs         1 LWZ       0.209800
     18 H5          22.5880     7.8400    21.5640 hc         1 LWZ       0.089700
     19 H6          22.9000     7.8480    19.8320 hc         1 LWZ       0.089700
     20 H7          22.3510    11.4690    19.6770 hn         1 LWZ       0.315500
     21 H8          23.0890    10.6770    17.6390 h1         1 LWZ       0.071200
     22 H9          23.5880     9.1640    18.3290 h1         1 LWZ       0.071200
     23 H10         25.0850    12.3920    20.1340 h4         1 LWZ       0.174000
@<TRIPOS>BOND
     1     1    11 1   
     2     1    12 1   
     3     1    14 1   
     4     2     3 1   
     5     2    15 1   
     6     3     4 1   
     7     3     5 1   
     8     3    16 1   
     9     4    17 1   
    10     5     6 1   
    11     5    18 1   
    12     5    19 1   
    13     6     7 2   
    14     6     8 1   
    15     8     9 1   
    16     8    20 1   
    17     9    10 1   
    18     9    21 1   
    19     9    22 1   
    20    10    11 2   
    21    10    13 1   
    22    11    23 1   
    23    12    13 2   
@<TRIPOS>SUBSTRUCTURE
     1 LWZ         1 TEMP              0 ****  ****    0 ROOT
