@<TRIPOS>MOLECULE
LWZ
   23    23     1     0     0
SMALL
No Charge or Current Charge


@<TRIPOS>ATOM
      1 N11         26.7920    11.3190    18.9630 na         1 LWZ      -0.003200
      2 S01         24.7980     8.8610    23.0680 sh         1 LWZ      -0.398300
      3 C02         24.8060     8.5250    21.2530 c3         1 LWZ       0.242300
      4 S03         25.7350     6.9870    20.8400 sh         1 LWZ      -0.398300
      5 C04         23.3940     8.5040    20.6430 c3         1 LWZ      -0.150400
      6 C05         22.7270     9.8820    20.7220 c          1 LWZ       0.600100
      7 O06         22.2620    10.3080    21.7660 o          1 LWZ      -0.577100
      8 N07         22.5570    10.6170    19.5680 ns         1 LWZ      -0.522900
      9 C08         23.3150    10.4700    18.3120 c3         1 LWZ       0.089700
     10 C09         24.8050    10.6520    18.4730 cc         1 LWZ       0.162300
     11 C10         25.4620    11.6580    19.1110 cd         1 LWZ      -0.202000
     12 N12         26.9060    10.1450    18.2600 nd         1 LWZ      -0.187800
     13 N13         25.6940     9.7480    17.9670 nc         1 LWZ      -0.357000
     14 H1          27.6100    11.8230    19.2990 hn         1 LWZ       0.384000
     15 H2          23.8730     9.8530    23.0180 hs         1 LWZ       0.209800
     16 H3          25.3790     9.3440    20.8010 h2         1 LWZ       0.089700
     17 H4          26.8830     7.3470    21.4630 hs         1 LWZ       0.209800
     18 H5          22.7900     7.7860    21.2090 hc         1 LWZ       0.089700
     19 H6          23.4770     8.1680    19.6070 hc         1 LWZ       0.089700
     20 H7          22.0190    11.4680    19.6860 hn         1 LWZ       0.315500
     21 H8          22.9530    11.2270    17.6040 h1         1 LWZ       0.071200
     22 H9          23.1010     9.4890    17.8670 h1         1 LWZ       0.071200
     23 H10         25.1060    12.5400    19.6300 h4         1 LWZ       0.174000
@<TRIPOS>BOND
     1     1    11 1   
     2     1    12 1   
     3     1    14 1   
     4     2     3 1   
     5     2    15 1   
     6     3     4 1   
     7     3     5 1   
     8     3    16 1   
     9     4    17 1   
    10     5     6 1   
    11     5    18 1   
    12     5    19 1   
    13     6     7 2   
    14     6     8 1   
    15     8     9 1   
    16     8    20 1   
    17     9    10 1   
    18     9    21 1   
    19     9    22 1   
    20    10    11 2   
    21    10    13 1   
    22    11    23 1   
    23    12    13 2   
@<TRIPOS>SUBSTRUCTURE
     1 LWZ         1 TEMP              0 ****  ****    0 ROOT
