@<TRIPOS>MOLECULE
LX0
   55    58     1     0     0
SMALL
No Charge or Current Charge


@<TRIPOS>ATOM
      1 O3          -7.9270    -3.7130     0.1100 o          1 LX0      -0.731500
      2 C1          -8.0720    -2.5070     0.2490 c          1 LX0       0.692000
      3 O2          -9.1340    -1.9970     0.5850 o          1 LX0      -0.731500
      4 C4          -6.8740    -1.5550    -0.1590 c3         1 LX0       0.017500
      5 N5          -7.1960    -0.4870    -1.1790 n8         1 LX0      -0.997200
      6 C6          -6.2300    -0.9390     1.1120 c3         1 LX0      -0.027100
      7 C7          -4.8970    -0.2360     0.8590 ca         1 LX0       0.001700
      8 C12         -4.7860     1.1600     0.9860 ca         1 LX0      -0.129500
      9 C11         -3.5540     1.8020     0.7710 ca         1 LX0      -0.064000
     10 C10         -2.3860     1.0680     0.4240 cp         1 LX0      -0.202500
     11 C9          -2.5210    -0.3430     0.3060 ca         1 LX0      -0.064000
     12 C8          -3.7540    -0.9820     0.5220 ca         1 LX0      -0.129500
     13 C13         -1.0630     1.7550     0.1940 cp         1 LX0       0.302500
     14 N18          0.0080     0.9980    -0.1290 nb         1 LX0      -0.323000
     15 C17          1.1550     1.6620    -0.3240 ca         1 LX0       0.433900
     16 N16          1.3160     2.9900    -0.2200 nb         1 LX0      -0.377000
     17 C15          0.1980     3.6400     0.1040 ca         1 LX0       0.432900
     18 N19          0.2940     4.9790     0.2190 nv         1 LX0      -1.079900
     19 N14         -1.0040     3.0980     0.3190 nb         1 LX0      -0.323000
     20 N20          2.2490     0.8850    -0.6470 nu         1 LX0      -0.927100
     21 C21          3.6160     1.3240    -0.9520 c3         1 LX0       0.299800
     22 C22          3.6910     1.8930    -2.3860 c3         1 LX0      -0.106100
     23 C23          4.5770     0.1530    -0.7350 ca         1 LX0      -0.093300
     24 C28          4.5570    -0.9770    -1.5820 ca         1 LX0      -0.100000
     25 C27          5.4440    -2.0450    -1.3690 ca         1 LX0      -0.100000
     26 C26          6.3620    -2.0000    -0.3050 ca         1 LX0      -0.033000
     27 C32          7.2530    -3.0690    -0.0870 ca         1 LX0      -0.098000
     28 C31          8.1670    -3.0180     0.9800 ca         1 LX0      -0.109000
     29 C30          8.1920    -1.9010     1.8320 ca         1 LX0      -0.112000
     30 C29          7.3040    -0.8320     1.6190 ca         1 LX0      -0.095000
     31 C25          6.3870    -0.8780     0.5510 ca         1 LX0      -0.037000
     32 C24          5.4960     0.1900     0.3340 ca         1 LX0      -0.081000
     33 H4          -6.1170    -2.2050    -0.6190 h1         1 LX0       0.042700
     34 HN5         -7.5680    -0.9340    -2.0260 hn         1 LX0       0.382500
     35 HN5A        -7.9970     0.0570    -0.8340 hn         1 LX0       0.382500
     36 H6          -6.9450    -0.2520     1.5810 hc         1 LX0       0.053700
     37 H6A         -6.0700    -1.7420     1.8420 hc         1 LX0       0.053700
     38 H12         -5.6580     1.7540     1.2500 ha         1 LX0       0.117000
     39 H11         -3.5150     2.8840     0.8770 ha         1 LX0       0.118000
     40 H9          -1.6630    -0.9600     0.0460 ha         1 LX0       0.118000
     41 H8          -3.8200    -2.0630     0.4280 ha         1 LX0       0.117000
     42 HN19         1.1180     5.4280    -0.1710 hn         1 LX0       0.499500
     43 HN1A        -0.5640     5.5240     0.2170 hn         1 LX0       0.499500
     44 HN20         2.0770    -0.1180    -0.6500 hn         1 LX0       0.510000
     45 H21          3.9050     2.1270    -0.2580 h1         1 LX0       0.077700
     46 H22          3.3500     1.1610    -3.1260 hc         1 LX0       0.043367
     47 H22A         3.0680     2.7890    -2.4810 hc         1 LX0       0.043367
     48 H22B         4.7230     2.1720    -2.6280 hc         1 LX0       0.043367
     49 H28          3.8500    -1.0320    -2.4080 ha         1 LX0       0.117000
     50 H27          5.4160    -2.9080    -2.0310 ha         1 LX0       0.114000
     51 H32          7.2390    -3.9370    -0.7430 ha         1 LX0       0.112000
     52 H31          8.8550    -3.8440     1.1460 ha         1 LX0       0.110000
     53 H30          8.9000    -1.8630     2.6570 ha         1 LX0       0.110000
     54 H29          7.3300     0.0290     2.2830 ha         1 LX0       0.113000
     55 H24          5.5190     1.0520     0.9980 ha         1 LX0       0.116000
@<TRIPOS>BOND
     1     1     2 1   
     2     2     3 1   
     3     2     4 1   
     4     4     5 1   
     5     4     6 1   
     6     4    33 1   
     7     5    34 1   
     8     5    35 1   
     9     6     7 1   
    10     6    36 1   
    11     6    37 1   
    12     7     8 ar  
    13     7    12 ar  
    14     8     9 ar  
    15     8    38 1   
    16     9    10 ar  
    17     9    39 1   
    18    10    11 ar  
    19    10    13 1   
    20    11    12 ar  
    21    11    40 1   
    22    12    41 1   
    23    13    14 ar  
    24    13    19 ar  
    25    14    15 ar  
    26    15    16 ar  
    27    15    20 1   
    28    16    17 ar  
    29    17    18 1   
    30    17    19 ar  
    31    18    42 1   
    32    18    43 1   
    33    20    21 1   
    34    20    44 1   
    35    21    22 1   
    36    21    23 1   
    37    21    45 1   
    38    22    46 1   
    39    22    47 1   
    40    22    48 1   
    41    23    24 ar  
    42    23    32 ar  
    43    24    25 ar  
    44    24    49 1   
    45    25    26 ar  
    46    25    50 1   
    47    26    27 ar  
    48    26    31 ar  
    49    27    28 ar  
    50    27    51 1   
    51    28    29 ar  
    52    28    52 1   
    53    29    30 ar  
    54    29    53 1   
    55    30    31 ar  
    56    30    54 1   
    57    31    32 ar  
    58    32    55 1   
@<TRIPOS>SUBSTRUCTURE
     1 LX0         1 TEMP              0 ****  ****    0 ROOT
