@<TRIPOS>MOLECULE
LX0
   55    58     1     0     0
SMALL
bcc


@<TRIPOS>ATOM
      1 O3          -7.9720    -3.2970     0.1990 o          1 LX0      -0.836800
      2 C1          -8.2280    -2.0910     0.0040 c          1 LX0       0.902600
      3 O2          -9.3560    -1.5620     0.0000 o          1 LX0      -0.836800
      4 C4          -7.0030    -1.1710    -0.2440 c3         1 LX0       0.017500
      5 N5          -7.3060     0.1860    -0.6580 n8         1 LX0      -0.886800
      6 C6          -6.1280    -1.1550     1.0210 c3         1 LX0      -0.027100
      7 C7          -4.8170    -0.4610     0.8130 ca         1 LX0       0.001700
      8 C12         -4.6720     0.9070     1.0370 ca         1 LX0      -0.147500
      9 C11         -3.4630     1.5450     0.8150 ca         1 LX0      -0.082000
     10 C10         -2.3550     0.8300     0.3600 cp         1 LX0      -0.202500
     11 C9          -2.4930    -0.5400     0.1370 ca         1 LX0      -0.082000
     12 C8          -3.7060    -1.1700     0.3590 ca         1 LX0      -0.147500
     13 C13         -1.0610     1.5060     0.1290 cp         1 LX0       0.828500
     14 N18         -0.0350     0.7490    -0.2250 nb         1 LX0      -0.849000
     15 C17          1.1190     1.4090    -0.4170 ca         1 LX0       0.959900
     16 N16          1.2760     2.7230    -0.2900 nb         1 LX0      -0.903000
     17 C15          0.1740     3.3820     0.0710 ca         1 LX0       0.958900
     18 N19          0.2680     4.7050     0.2270 nv         1 LX0      -0.969500
     19 N14         -1.0210     2.8210     0.2950 nb         1 LX0      -0.849000
     20 N20          2.1790     0.6630    -0.7470 nu         1 LX0      -0.871900
     21 C21          3.5050     1.1880    -1.0260 c3         1 LX0       0.299800
     22 C22          3.6210     1.7110    -2.4560 c3         1 LX0      -0.106100
     23 C23          4.5280     0.1180    -0.7280 ca         1 LX0      -0.093300
     24 C28          4.5360    -1.0870    -1.4730 ca         1 LX0      -0.118000
     25 C27          5.4470    -2.0710    -1.2090 ca         1 LX0      -0.118000
     26 C26          6.4160    -1.9060    -0.1900 ca         1 LX0      -0.033000
     27 C32          7.3720    -2.9040     0.1080 ca         1 LX0      -0.116000
     28 C31          8.2960    -2.7090     1.0990 ca         1 LX0      -0.127000
     29 C30          8.3060    -1.5070     1.8360 ca         1 LX0      -0.130000
     30 C29          7.3910    -0.5240     1.5700 ca         1 LX0      -0.113000
     31 C25          6.4230    -0.6980     0.5530 ca         1 LX0      -0.037000
     32 C24          5.4580     0.2950     0.2610 ca         1 LX0      -0.099000
     33 H4          -6.4070    -1.6350    -1.0400 h1         1 LX0       0.042700
     34 HN5         -7.7890     0.1530    -1.5480 hn         1 LX0       0.327300
     35 HN5A        -7.9910     0.5670    -0.0150 hn         1 LX0       0.327300
     36 H6          -6.6840    -0.6690     1.8300 hc         1 LX0       0.053700
     37 H6A         -5.9530    -2.1860     1.3300 hc         1 LX0       0.053700
     38 H12         -5.5180     1.4800     1.3960 ha         1 LX0       0.135000
     39 H11         -3.3740     2.6080     0.9960 ha         1 LX0       0.136000
     40 H9          -1.6430    -1.1120    -0.2100 ha         1 LX0       0.136000
     41 H8          -3.7910    -2.2360     0.1800 ha         1 LX0       0.135000
     42 HN19         1.1250     5.1840     0.0140 hn         1 LX0       0.444300
     43 HN1A        -0.5480     5.2470     0.4460 hn         1 LX0       0.444300
     44 HN20         2.0060    -0.3220    -0.8780 hn         1 LX0       0.454800
     45 H21          3.6760     2.0200    -0.3410 h1         1 LX0       0.077700
     46 H22          3.4490     0.9190    -3.1860 hc         1 LX0       0.043367
     47 H22A         2.8900     2.4990    -2.6300 hc         1 LX0       0.043367
     48 H22B         4.6150     2.1240    -2.6310 hc         1 LX0       0.043367
     49 H28          3.8130    -1.2350    -2.2670 ha         1 LX0       0.135000
     50 H27          5.4390    -2.9890    -1.7840 ha         1 LX0       0.132000
     51 H32          7.3640    -3.8280    -0.4590 ha         1 LX0       0.130000
     52 H31          9.0230    -3.4790     1.3220 ha         1 LX0       0.128000
     53 H30          9.0430    -1.3650     2.6160 ha         1 LX0       0.128000
     54 H29          7.3970     0.3990     2.1370 ha         1 LX0       0.131000
     55 H24          5.4630     1.2110     0.8410 ha         1 LX0       0.134000
@<TRIPOS>BOND
     1     1     2 1   
     2     2     3 1   
     3     2     4 1   
     4     4     5 1   
     5     4     6 1   
     6     4    33 1   
     7     5    34 1   
     8     5    35 1   
     9     6     7 1   
    10     6    36 1   
    11     6    37 1   
    12     7     8 ar  
    13     7    12 ar  
    14     8     9 ar  
    15     8    38 1   
    16     9    10 ar  
    17     9    39 1   
    18    10    11 ar  
    19    10    13 1   
    20    11    12 ar  
    21    11    40 1   
    22    12    41 1   
    23    13    14 ar  
    24    13    19 ar  
    25    14    15 ar  
    26    15    16 ar  
    27    15    20 1   
    28    16    17 ar  
    29    17    18 1   
    30    17    19 ar  
    31    18    42 1   
    32    18    43 1   
    33    20    21 1   
    34    20    44 1   
    35    21    22 1   
    36    21    23 1   
    37    21    45 1   
    38    22    46 1   
    39    22    47 1   
    40    22    48 1   
    41    23    24 ar  
    42    23    32 ar  
    43    24    25 ar  
    44    24    49 1   
    45    25    26 ar  
    46    25    50 1   
    47    26    27 ar  
    48    26    31 ar  
    49    27    28 ar  
    50    27    51 1   
    51    28    29 ar  
    52    28    52 1   
    53    29    30 ar  
    54    29    53 1   
    55    30    31 ar  
    56    30    54 1   
    57    31    32 ar  
    58    32    55 1   
@<TRIPOS>SUBSTRUCTURE
     1 LX0         1 TEMP              0 ****  ****    0 ROOT
