@<TRIPOS>MOLECULE
LX2
   75    79     1     0     0
SMALL
No Charge or Current Charge


@<TRIPOS>ATOM
      1 F40         -2.0650     6.5200     0.0650 f          1 LX2      -0.108667
      2 C37         -1.4290     5.3920    -0.3290 c3         1 LX2       0.363300
      3 F38         -0.8120     5.6940    -1.4940 f          1 LX2      -0.108667
      4 F39         -0.4630     5.1650     0.5910 f          1 LX2      -0.108667
      5 C34         -2.3760     4.1880    -0.4760 ca         1 LX2      -0.197300
      6 C35         -1.8870     2.9070    -0.8530 ca         1 LX2       0.170000
      7 Cl36        -0.1650     2.7010    -1.2090 cl         1 LX2      -0.155000
      8 C33         -3.7600     4.3490    -0.2400 ca         1 LX2      -0.058000
      9 C32         -4.6370     3.2680    -0.3850 ca         1 LX2      -0.124000
     10 C31         -4.1500     2.0080    -0.7530 ca         1 LX2      -0.073000
     11 C30         -2.7730     1.8020    -0.9710 ca         1 LX2      -0.116300
     12 C29         -2.2930     0.3950    -1.3730 c3         1 LX2       0.229100
     13 N14         -2.0660    -0.5550    -0.2340 n3         1 LX2      -0.742600
     14 C15         -3.2780    -0.8800     0.5740 c3         1 LX2       0.193800
     15 C16         -4.4030    -1.6600    -0.1720 c3         1 LX2       0.025900
     16 C23         -3.9380    -3.0480    -0.6250 ca         1 LX2      -0.062300
     17 C24         -3.9230    -3.3780    -1.9960 ca         1 LX2      -0.103000
     18 C25         -3.5030    -4.6510    -2.4190 ca         1 LX2      -0.108500
     19 C26         -3.0950    -5.6070    -1.4750 ca         1 LX2      -0.111000
     20 C27         -3.1100    -5.2890    -0.1070 ca         1 LX2      -0.108500
     21 C28         -3.5300    -4.0160     0.3170 ca         1 LX2      -0.103000
     22 C17         -5.7080    -1.7700     0.6300 ca         1 LX2      -0.062300
     23 C18         -6.9360    -1.7890    -0.0650 ca         1 LX2      -0.103000
     24 C19         -8.1530    -1.8910     0.6300 ca         1 LX2      -0.108500
     25 C20         -8.1560    -1.9800     2.0310 ca         1 LX2      -0.111000
     26 C21         -6.9410    -1.9710     2.7340 ca         1 LX2      -0.108500
     27 C22         -5.7230    -1.8680     2.0400 ca         1 LX2      -0.103000
     28 C13         -0.8880    -0.2290     0.6090 c3         1 LX2       0.186800
     29 C12          0.4670    -0.5410    -0.0610 c3         1 LX2      -0.083400
     30 C11          1.6590    -0.1260     0.8180 c3         1 LX2       0.166600
     31 O10          2.8630    -0.4630     0.1110 os         1 LX2      -0.346100
     32 C9           4.1130    -0.2030     0.6360 ca         1 LX2       0.171100
     33 C8           5.2540    -0.5500    -0.1050 ca         1 LX2      -0.127800
     34 C44          6.5230    -0.3190     0.3560 ca         1 LX2      -0.006200
     35 C43          6.7410     0.2820     1.6070 ca         1 LX2      -0.119000
     36 C42          5.6180     0.6440     2.3800 ca         1 LX2      -0.093000
     37 C41          4.3090     0.4050     1.9010 ca         1 LX2      -0.250000
     38 C7           5.3750    -1.1670    -1.3950 cc         1 LX2      -0.258200
     39 C6           6.7330    -1.2850    -1.6690 cd         1 LX2      -0.155100
     40 N5           7.4580    -0.7590    -0.5760 na         1 LX2      -0.016700
     41 C4           8.9170    -0.6390    -0.4230 c3         1 LX2      -0.094400
     42 C2           9.5250    -1.7700     0.4210 c          1 LX2       0.710000
     43 O1           9.8250    -1.5290     1.5810 o          1 LX2      -0.710000
     44 O3           9.7110    -2.8540    -0.1140 o          1 LX2      -0.710000
     45 H33         -4.1730     5.3130     0.0490 ha         1 LX2       0.132000
     46 H32         -5.7020     3.4070    -0.2130 ha         1 LX2       0.122000
     47 H31         -4.8550     1.1900    -0.8680 ha         1 LX2       0.120000
     48 H29         -3.0360    -0.0250    -2.0620 h1         1 LX2       0.067200
     49 H29A        -1.3860     0.4780    -1.9850 h1         1 LX2       0.067200
     50 H15         -2.9740    -1.4930     1.4320 h1         1 LX2       0.035700
     51 H15A        -3.7030     0.0410     0.9950 h1         1 LX2       0.035700
     52 H16         -4.6460    -1.0790    -1.0660 hc         1 LX2       0.048700
     53 H24         -4.2360    -2.6470    -2.7390 ha         1 LX2       0.108500
     54 H25         -3.4930    -4.8960    -3.4790 ha         1 LX2       0.110250
     55 H26         -2.7700    -6.5920    -1.8020 ha         1 LX2       0.110500
     56 H27         -2.7960    -6.0290     0.6270 ha         1 LX2       0.110250
     57 H28         -3.5400    -3.7860     1.3790 ha         1 LX2       0.108500
     58 H18         -6.9480    -1.7250    -1.1510 ha         1 LX2       0.108500
     59 H19         -9.0920    -1.9020     0.0820 ha         1 LX2       0.110250
     60 H20         -9.0980    -2.0600     2.5700 ha         1 LX2       0.110500
     61 H21         -6.9420    -2.0450     3.8200 ha         1 LX2       0.110250
     62 H22         -4.7990    -1.8720     2.6100 ha         1 LX2       0.108500
     63 H13         -0.9180     0.8270     0.9080 h1         1 LX2       0.032200
     64 H13A        -0.9210    -0.8160     1.5370 h1         1 LX2       0.032200
     65 H12          0.5220    -1.6170    -0.2590 hc         1 LX2       0.061700
     66 H12A         0.5470    -0.0350    -1.0270 hc         1 LX2       0.061700
     67 H11          1.6120     0.9540     1.0100 h1         1 LX2       0.027200
     68 H11A         1.6110    -0.6580     1.7780 h1         1 LX2       0.027200
     69 H43          7.7470     0.4640     1.9760 ha         1 LX2       0.124000
     70 H42          5.7620     1.1110     3.3520 ha         1 LX2       0.090000
     71 H41          3.4670     0.6960     2.5210 ha         1 LX2       0.092000
     72 H7           4.5650    -1.4850    -2.0490 ha         1 LX2       0.190000
     73 H6           7.2320    -1.6960    -2.5410 h4         1 LX2       0.201000
     74 H4           9.3810    -0.6610    -1.4170 h1         1 LX2       0.039200
     75 H4A          9.1570     0.3250     0.0410 h1         1 LX2       0.039200
@<TRIPOS>BOND
     1     1     2 1   
     2     2     3 1   
     3     2     4 1   
     4     2     5 1   
     5     5     6 ar  
     6     5     8 ar  
     7     6     7 1   
     8     6    11 ar  
     9     8     9 ar  
    10     8    45 1   
    11     9    10 ar  
    12     9    46 1   
    13    10    11 ar  
    14    10    47 1   
    15    11    12 1   
    16    12    13 1   
    17    12    48 1   
    18    12    49 1   
    19    13    14 1   
    20    13    28 1   
    21    14    15 1   
    22    14    50 1   
    23    14    51 1   
    24    15    16 1   
    25    15    22 1   
    26    15    52 1   
    27    16    17 ar  
    28    16    21 ar  
    29    17    18 ar  
    30    17    53 1   
    31    18    19 ar  
    32    18    54 1   
    33    19    20 ar  
    34    19    55 1   
    35    20    21 ar  
    36    20    56 1   
    37    21    57 1   
    38    22    23 ar  
    39    22    27 ar  
    40    23    24 ar  
    41    23    58 1   
    42    24    25 ar  
    43    24    59 1   
    44    25    26 ar  
    45    25    60 1   
    46    26    27 ar  
    47    26    61 1   
    48    27    62 1   
    49    28    29 1   
    50    28    63 1   
    51    28    64 1   
    52    29    30 1   
    53    29    65 1   
    54    29    66 1   
    55    30    31 1   
    56    30    67 1   
    57    30    68 1   
    58    31    32 1   
    59    32    33 ar  
    60    32    37 ar  
    61    33    34 ar  
    62    33    38 1   
    63    34    35 ar  
    64    34    40 1   
    65    35    36 ar  
    66    35    69 1   
    67    36    37 ar  
    68    36    70 1   
    69    37    71 1   
    70    38    39 2   
    71    38    72 1   
    72    39    40 1   
    73    39    73 1   
    74    40    41 1   
    75    41    42 1   
    76    41    74 1   
    77    41    75 1   
    78    42    43 1   
    79    42    44 1   
@<TRIPOS>SUBSTRUCTURE
     1 LX2         1 TEMP              0 ****  ****    0 ROOT
