@<TRIPOS>MOLECULE
LX2
   75    79     1     0     0
SMALL
bcc


@<TRIPOS>ATOM
      1 F40         -1.8460     6.3940    -0.0720 f          1 LX2      -0.229967
      2 C37         -1.2450     5.2560    -0.4320 c3         1 LX2       0.727200
      3 F38         -0.6140     5.5050    -1.5850 f          1 LX2      -0.229967
      4 F39         -0.3040     5.0120     0.4890 f          1 LX2      -0.229967
      5 C34         -2.2230     4.1220    -0.5530 ca         1 LX2      -0.197300
      6 C35         -1.8030     2.8330    -0.8950 ca         1 LX2       0.078400
      7 CL36        -0.1240     2.5660    -1.2480 cl         1 LX2      -0.063400
      8 C33         -3.5710     4.3560    -0.3240 ca         1 LX2      -0.076000
      9 C32         -4.4870     3.3260    -0.4550 ca         1 LX2      -0.142000
     10 C31         -4.0500     2.0580    -0.7900 ca         1 LX2      -0.091000
     11 C30         -2.7000     1.7710    -0.9950 ca         1 LX2      -0.116300
     12 C29         -2.2920     0.3380    -1.2820 c3         1 LX2       0.229100
     13 N14         -2.1210    -0.5040    -0.1110 n3         1 LX2      -0.742600
     14 C15         -3.3150    -0.7560     0.6650 c3         1 LX2       0.193800
     15 C16         -4.3700    -1.5520    -0.1100 c3         1 LX2       0.025900
     16 C23         -3.8080    -2.8500    -0.6450 ca         1 LX2      -0.062300
     17 C24         -3.7760    -3.0860    -2.0150 ca         1 LX2      -0.121000
     18 C25         -3.2720    -4.2760    -2.5250 ca         1 LX2      -0.126500
     19 C26         -2.7910    -5.2510    -1.6640 ca         1 LX2      -0.129000
     20 C27         -2.8220    -5.0280    -0.2920 ca         1 LX2      -0.126500
     21 C28         -3.3280    -3.8390     0.2110 ca         1 LX2      -0.121000
     22 C17         -5.6300    -1.7940     0.6970 ca         1 LX2      -0.062300
     23 C18         -6.8500    -1.8660     0.0270 ca         1 LX2      -0.121000
     24 C19         -8.0310    -2.1200     0.7080 ca         1 LX2      -0.126500
     25 C20         -8.0140    -2.3060     2.0840 ca         1 LX2      -0.129000
     26 C21         -6.8070    -2.2320     2.7650 ca         1 LX2      -0.126500
     27 C22         -5.6260    -1.9780     2.0770 ca         1 LX2      -0.121000
     28 C13         -0.9580    -0.1810     0.6960 c3         1 LX2       0.186800
     29 C12          0.3370    -0.6930     0.0750 c3         1 LX2      -0.083400
     30 C11          1.5380    -0.2050     0.8570 c3         1 LX2       0.143400
     31 O10          2.7080    -0.6560     0.1980 os         1 LX2      -0.322900
     32 C9           3.9080    -0.2820     0.6820 ca         1 LX2       0.171100
     33 C8           5.0240    -0.6590    -0.0840 ca         1 LX2      -0.127800
     34 C44          6.3140    -0.3000     0.3530 ca         1 LX2      -0.006200
     35 C43          6.5310     0.4120     1.5380 ca         1 LX2      -0.137000
     36 C42          5.4150     0.7640     2.2640 ca         1 LX2      -0.111000
     37 C41          4.1110     0.4300     1.8520 ca         1 LX2      -0.268000
     38 C7           5.1800    -1.3700    -1.3110 cc         1 LX2      -0.208200
     39 C6           6.5220    -1.4050    -1.5600 cd         1 LX2      -0.105100
     40 N5           7.2060    -0.7490    -0.5760 na         1 LX2       0.012600
     41 C4           8.6380    -0.6790    -0.4560 c3         1 LX2      -0.123700
     42 C2           9.2540    -1.7530     0.4710 c          1 LX2       0.920600
     43 O1          10.4790    -1.6250     0.6570 o          1 LX2      -0.815300
     44 O3           8.4980    -2.6270     0.9190 o          1 LX2      -0.815300
     45 H33         -3.9210     5.3420    -0.0550 ha         1 LX2       0.150000
     46 H32         -5.5390     3.5160    -0.2990 ha         1 LX2       0.140000
     47 H31         -4.7820     1.2690    -0.9140 ha         1 LX2       0.138000
     48 H29         -3.0490    -0.1070    -1.9310 h1         1 LX2       0.067200
     49 H29A        -1.3720     0.3150    -1.8660 h1         1 LX2       0.067200
     50 H15         -3.0070    -1.3410     1.5330 h1         1 LX2       0.035700
     51 H15A        -3.7790     0.1560     1.0730 h1         1 LX2       0.035700
     52 H16         -4.6840    -0.9650    -0.9790 hc         1 LX2       0.048700
     53 H24         -4.1500    -2.3280    -2.6940 ha         1 LX2       0.126500
     54 H25         -3.2550    -4.4390    -3.5960 ha         1 LX2       0.128250
     55 H26         -2.3970    -6.1800    -2.0560 ha         1 LX2       0.128500
     56 H27         -2.4540    -5.7860     0.3880 ha         1 LX2       0.128250
     57 H28         -3.3530    -3.6890     1.2840 ha         1 LX2       0.126500
     58 H18         -6.8750    -1.7220    -1.0480 ha         1 LX2       0.126500
     59 H19         -8.9660    -2.1700     0.1640 ha         1 LX2       0.128250
     60 H20         -8.9320    -2.5050     2.6220 ha         1 LX2       0.128500
     61 H21         -6.7790    -2.3690     3.8380 ha         1 LX2       0.128250
     62 H22         -4.7030    -1.9240     2.6420 ha         1 LX2       0.126500
     63 H13         -0.8780     0.8940     0.9110 h1         1 LX2       0.032200
     64 H13A        -1.0820    -0.6600     1.6700 h1         1 LX2       0.032200
     65 H12          0.3130    -1.7850     0.0560 hc         1 LX2       0.061700
     66 H12A         0.4330    -0.3560    -0.9590 hc         1 LX2       0.061700
     67 H11          1.5340     0.8900     0.9100 h1         1 LX2       0.027200
     68 H11A         1.5060    -0.5840     1.8860 h1         1 LX2       0.027200
     69 H43          7.5240     0.6740     1.8790 ha         1 LX2       0.142000
     70 H42          5.5360     1.3170     3.1880 ha         1 LX2       0.108000
     71 H41          3.2790     0.7380     2.4720 ha         1 LX2       0.110000
     72 H7           4.4060    -1.7890    -1.9330 ha         1 LX2       0.140000
     73 H6           7.0550    -1.8470    -2.3880 h4         1 LX2       0.151000
     74 H4           9.0660    -0.7840    -1.4540 h1         1 LX2       0.039200
     75 H4A          8.9210     0.3160    -0.1070 h1         1 LX2       0.039200
@<TRIPOS>BOND
     1     1     2 1   
     2     2     3 1   
     3     2     4 1   
     4     2     5 1   
     5     5     6 ar  
     6     5     8 ar  
     7     6     7 1   
     8     6    11 ar  
     9     8     9 ar  
    10     8    45 1   
    11     9    10 ar  
    12     9    46 1   
    13    10    11 ar  
    14    10    47 1   
    15    11    12 1   
    16    12    13 1   
    17    12    48 1   
    18    12    49 1   
    19    13    14 1   
    20    13    28 1   
    21    14    15 1   
    22    14    50 1   
    23    14    51 1   
    24    15    16 1   
    25    15    22 1   
    26    15    52 1   
    27    16    17 ar  
    28    16    21 ar  
    29    17    18 ar  
    30    17    53 1   
    31    18    19 ar  
    32    18    54 1   
    33    19    20 ar  
    34    19    55 1   
    35    20    21 ar  
    36    20    56 1   
    37    21    57 1   
    38    22    23 ar  
    39    22    27 ar  
    40    23    24 ar  
    41    23    58 1   
    42    24    25 ar  
    43    24    59 1   
    44    25    26 ar  
    45    25    60 1   
    46    26    27 ar  
    47    26    61 1   
    48    27    62 1   
    49    28    29 1   
    50    28    63 1   
    51    28    64 1   
    52    29    30 1   
    53    29    65 1   
    54    29    66 1   
    55    30    31 1   
    56    30    67 1   
    57    30    68 1   
    58    31    32 1   
    59    32    33 ar  
    60    32    37 ar  
    61    33    34 ar  
    62    33    38 1   
    63    34    35 ar  
    64    34    40 1   
    65    35    36 ar  
    66    35    69 1   
    67    36    37 ar  
    68    36    70 1   
    69    37    71 1   
    70    38    39 2   
    71    38    72 1   
    72    39    40 1   
    73    39    73 1   
    74    40    41 1   
    75    41    42 1   
    76    41    74 1   
    77    41    75 1   
    78    42    43 1   
    79    42    44 1   
@<TRIPOS>SUBSTRUCTURE
     1 LX2         1 TEMP              0 ****  ****    0 ROOT
