@<TRIPOS>MOLECULE
LX3
   73    74     1     0     0
SMALL
abcg2


@<TRIPOS>ATOM
      1 C4          -6.3570    -3.6250    -1.5770 c3         1 LX3      -0.089100
      2 C5          -5.5370    -3.5510    -0.2960 c3         1 LX3      -0.076400
      3 C6          -4.2100    -2.8280    -0.4850 c3         1 LX3      -0.076400
      4 C7          -3.3900    -2.7640     0.8080 c3         1 LX3      -0.041200
      5 C8          -2.0810    -2.0300     0.6600 ce         1 LX3      -0.044400
      6 O9           7.2670     1.5950    -1.9170 oh         1 LX3      -0.660000
      7 C10          7.1590     1.9700    -0.5480 c3         1 LX3       0.184000
      8 C11          8.5390     2.3330     0.0010 c3         1 LX3      -0.100100
      9 C12          6.2560     3.1970    -0.5190 c3         1 LX3      -0.100100
     10 C13          6.5730     0.8190     0.2840 c3         1 LX3      -0.102400
     11 C14          5.2240     0.2830    -0.1780 c3         1 LX3      -0.070400
     12 C15          4.7320    -0.8650     0.6950 c3         1 LX3      -0.077400
     13 C16          3.3920    -1.4260     0.2380 c3         1 LX3      -0.073400
     14 C18          1.5590    -3.0950     0.6760 ca         1 LX3      -0.078300
     15 C19          0.3870    -2.3790     0.8950 ca         1 LX3      -0.101000
     16 C20          1.4820    -4.3040    -0.0110 ca         1 LX3      -0.104000
     17 C21          0.2550    -4.7810    -0.4510 ca         1 LX3      -0.111000
     18 C22         -0.9040    -4.0570    -0.2220 ca         1 LX3      -0.102000
     19 C23         -0.8570    -2.8260     0.4410 ca         1 LX3      -0.046800
     20 C24         -2.0080    -0.6830     0.6830 cf         1 LX3      -0.175000
     21 C25         -3.1230     0.2170     0.8740 cf         1 LX3      -0.172000
     22 C26         -3.0580     1.5600     0.9200 ce         1 LX3      -0.057200
     23 C27         -1.8160     2.3490     0.8310 ce         1 LX3      -0.126200
     24 C28         -0.7670     2.1870     1.6360 c2         1 LX3      -0.295000
     25 C29         -1.8300     3.4130    -0.2430 c6         1 LX3       0.211500
     26 O30         -1.8260     2.8120    -1.5250 oh         1 LX3      -0.656000
     27 C31         -3.0860     4.2680    -0.1400 c6         1 LX3      -0.065400
     28 C32         -4.3530     3.4260    -0.1260 c6         1 LX3       0.176300
     29 O33         -5.4480     4.3070     0.0160 oh         1 LX3      -0.661000
     30 C34         -4.2980     2.4050     1.0140 c6         1 LX3      -0.076200
     31 H1          -5.8180    -4.1590    -2.3610 hc         1 LX3       0.032033
     32 H2          -7.3030    -4.1430    -1.4140 hc         1 LX3       0.032033
     33 H3          -6.5880    -2.6280    -1.9570 hc         1 LX3       0.032033
     34 H4          -6.1160    -3.0440     0.4810 hc         1 LX3       0.036200
     35 H5          -5.3500    -4.5630     0.0760 hc         1 LX3       0.036200
     36 H6          -3.6310    -3.3250    -1.2690 hc         1 LX3       0.043700
     37 H7          -4.3960    -1.8120    -0.8460 hc         1 LX3       0.043700
     38 H8          -3.9940    -2.2830     1.5830 hc         1 LX3       0.046700
     39 H9          -3.2100    -3.7790     1.1700 hc         1 LX3       0.046700
     40 H10          7.8280     0.8140    -1.9700 ho         1 LX3       0.438000
     41 H11          9.2140     1.4750    -0.0370 hc         1 LX3       0.041200
     42 H12          8.9870     3.1440    -0.5770 hc         1 LX3       0.041200
     43 H13          8.4780     2.6570     1.0410 hc         1 LX3       0.041200
     44 H14          6.0900     3.5240     0.5080 hc         1 LX3       0.041200
     45 H15          6.7100     4.0270    -1.0620 hc         1 LX3       0.041200
     46 H16          5.2820     2.9980    -0.9670 hc         1 LX3       0.041200
     47 H17          7.2990    -0.0040     0.2920 hc         1 LX3       0.039200
     48 H18          6.4940     1.1510     1.3240 hc         1 LX3       0.039200
     49 H19          4.4740     1.0810    -0.1640 hc         1 LX3       0.045700
     50 H20          5.2930    -0.0540    -1.2160 hc         1 LX3       0.045700
     51 H21          5.4780    -1.6680     0.7010 hc         1 LX3       0.035700
     52 H22          4.6480    -0.5230     1.7320 hc         1 LX3       0.035700
     53 H23          2.6490    -0.6220     0.2050 hc         1 LX3       0.042200
     54 H24          3.4800    -1.8020    -0.7860 hc         1 LX3       0.042200
     55 H25          3.6200    -3.3490     1.1850 hc         1 LX3       0.046200
     56 H26          2.7800    -2.1630     2.1640 hc         1 LX3       0.046200
     57 H27          0.4430    -1.4550     1.4620 ha         1 LX3       0.111000
     58 H28          2.3830    -4.8800    -0.1880 ha         1 LX3       0.111000
     59 H29          0.2000    -5.7260    -0.9760 ha         1 LX3       0.112000
     60 H30         -1.8470    -4.4500    -0.5790 ha         1 LX3       0.115000
     61 H31         -1.0460    -0.2150     0.5090 ha         1 LX3       0.175000
     62 H32         -4.1130    -0.2220     0.9520 ha         1 LX3       0.174000
     63 H33         -0.7550     1.4430     2.4230 ha         1 LX3       0.168500
     64 H34          0.1130     2.8120     1.5430 ha         1 LX3       0.168500
     65 H35         -0.9520     4.0600    -0.1150 h1         1 LX3       0.037700
     66 H36         -1.0510     2.2440    -1.5880 ho         1 LX3       0.445000
     67 H37         -3.0300     4.8510     0.7850 hc         1 LX3       0.062700
     68 H38         -3.1110     4.9820    -0.9680 hc         1 LX3       0.062700
     69 H39         -4.4260     2.8740    -1.0730 h1         1 LX3       0.050700
     70 H40         -6.2580     3.7910    -0.0450 ho         1 LX3       0.442000
     71 H41         -5.1910     1.7740     1.0000 hc         1 LX3       0.052700
     72 H42         -4.2990     2.9540     1.9640 hc         1 LX3       0.052700
     73 C17          2.8780    -2.5470     1.1440 c3         1 LX3      -0.031100
@<TRIPOS>BOND
     1     1     2 1   
     2     1    31 1   
     3     1    32 1   
     4     1    33 1   
     5     2     3 1   
     6     2    34 1   
     7     2    35 1   
     8     3     4 1   
     9     3    36 1   
    10     3    37 1   
    11     4     5 1   
    12     4    38 1   
    13     4    39 1   
    14     5    19 1   
    15     5    20 2   
    16     6     7 1   
    17     6    40 1   
    18     7     8 1   
    19     7     9 1   
    20     7    10 1   
    21     8    41 1   
    22     8    42 1   
    23     8    43 1   
    24     9    44 1   
    25     9    45 1   
    26     9    46 1   
    27    10    11 1   
    28    10    47 1   
    29    10    48 1   
    30    11    12 1   
    31    11    49 1   
    32    11    50 1   
    33    12    13 1   
    34    12    51 1   
    35    12    52 1   
    36    13    53 1   
    37    13    54 1   
    38    13    73 1   
    39    14    15 ar  
    40    14    16 ar  
    41    14    73 1   
    42    15    19 ar  
    43    15    57 1   
    44    16    17 ar  
    45    16    58 1   
    46    17    18 ar  
    47    17    59 1   
    48    18    19 ar  
    49    18    60 1   
    50    20    21 1   
    51    20    61 1   
    52    21    22 2   
    53    21    62 1   
    54    22    23 1   
    55    22    30 1   
    56    23    24 2   
    57    23    25 1   
    58    24    63 1   
    59    24    64 1   
    60    25    26 1   
    61    25    27 1   
    62    25    65 1   
    63    26    66 1   
    64    27    28 1   
    65    27    67 1   
    66    27    68 1   
    67    28    29 1   
    68    28    30 1   
    69    28    69 1   
    70    29    70 1   
    71    30    71 1   
    72    30    72 1   
    73    55    73 1   
    74    56    73 1   
@<TRIPOS>SUBSTRUCTURE
     1 LX3         1 TEMP              0 ****  ****    0 ROOT
