@<TRIPOS>MOLECULE
LX3
   73    74     1     0     0
SMALL
No Charge or Current Charge


@<TRIPOS>ATOM
      1 C4          -6.6670    -3.7990    -0.9760 c3         1 LX3      -0.089100
      2 C5          -5.6100    -3.6960     0.1400 c3         1 LX3      -0.076400
      3 C6          -4.3590    -2.8960    -0.2840 c3         1 LX3      -0.076400
      4 C7          -3.2980    -2.7920     0.8390 c3         1 LX3      -0.041200
      5 C8          -2.0570    -1.9950     0.4380 ce         1 LX3      -0.044400
      6 O9           7.7140     1.5140    -1.6140 oh         1 LX3      -0.660000
      7 C10          7.4460     1.9430    -0.2780 c3         1 LX3       0.184000
      8 C11          8.8010     2.3030     0.3740 c3         1 LX3      -0.100100
      9 C12          6.5450     3.2000    -0.3550 c3         1 LX3      -0.100100
     10 C13          6.7710     0.7750     0.5000 c3         1 LX3      -0.102400
     11 C14          5.4180     0.2650    -0.0650 c3         1 LX3      -0.070400
     12 C15          4.8500    -0.9320     0.7290 c3         1 LX3      -0.077400
     13 C16          3.5000    -1.4380     0.1760 c3         1 LX3      -0.073400
     14 C18          1.5940    -3.1080     0.4090 ca         1 LX3      -0.078300
     15 C19          0.4180    -2.3780     0.6670 ca         1 LX3      -0.101000
     16 C20          1.5250    -4.2750    -0.3740 ca         1 LX3      -0.104000
     17 C21          0.2920    -4.7050    -0.8900 ca         1 LX3      -0.111000
     18 C22         -0.8780    -3.9720    -0.6290 ca         1 LX3      -0.102000
     19 C23         -0.8260    -2.7980     0.1520 ca         1 LX3      -0.046800
     20 C24         -2.0600    -0.6280     0.3920 cf         1 LX3      -0.175000
     21 C25         -3.1770     0.2710     0.6900 cf         1 LX3      -0.172000
     22 C26         -3.1350     1.6360     0.6840 ce         1 LX3      -0.057200
     23 C27         -1.9330     2.4590     0.4430 ce         1 LX3      -0.126200
     24 C28         -0.7700     2.2850     1.1090 c2         1 LX3      -0.295000
     25 C29         -2.1120     3.5820    -0.5890 c6         1 LX3       0.211500
     26 O30         -2.1910     3.0080    -1.8950 oh         1 LX3      -0.656000
     27 C31         -3.3750     4.4230    -0.2810 c6         1 LX3      -0.065400
     28 C32         -4.6300     3.5350    -0.0940 c6         1 LX3       0.176300
     29 O33         -5.7550     4.3500     0.2580 oh         1 LX3      -0.661000
     30 C34         -4.3850     2.4660     1.0000 c6         1 LX3      -0.076200
     31 H1          -6.2520    -4.3030    -1.8580 hc         1 LX3       0.032033
     32 H2          -7.5340    -4.3730    -0.6290 hc         1 LX3       0.032033
     33 H3          -7.0130    -2.8030    -1.2770 hc         1 LX3       0.032033
     34 H4          -6.0650    -3.2200     1.0180 hc         1 LX3       0.036200
     35 H5          -5.3110    -4.7070     0.4430 hc         1 LX3       0.036200
     36 H6          -3.9130    -3.3710    -1.1650 hc         1 LX3       0.043700
     37 H7          -4.6650    -1.8910    -0.5950 hc         1 LX3       0.043700
     38 H8          -3.7590    -2.3430     1.7270 hc         1 LX3       0.046700
     39 H9          -3.0140    -3.8050     1.1490 hc         1 LX3       0.046700
     40 H10          8.2200     0.6760    -1.5460 ho         1 LX3       0.438000
     41 H11          9.4660     1.4320     0.4110 hc         1 LX3       0.041200
     42 H12          9.3110     3.0940    -0.1890 hc         1 LX3       0.041200
     43 H13          8.6540     2.6600     1.4010 hc         1 LX3       0.041200
     44 H14          6.2530     3.5290     0.6500 hc         1 LX3       0.041200
     45 H15          7.0730     4.0280    -0.8430 hc         1 LX3       0.041200
     46 H16          5.6330     3.0050    -0.9310 hc         1 LX3       0.041200
     47 H17          7.4680    -0.0710     0.5450 hc         1 LX3       0.039200
     48 H18          6.6130     1.0920     1.5390 hc         1 LX3       0.039200
     49 H19          4.6810     1.0760    -0.0470 hc         1 LX3       0.045700
     50 H20          5.5440    -0.0320    -1.1140 hc         1 LX3       0.045700
     51 H21          5.5770    -1.7540     0.7120 hc         1 LX3       0.035700
     52 H22          4.7220    -0.6390     1.7790 hc         1 LX3       0.035700
     53 H23          2.7740    -0.6150     0.1900 hc         1 LX3       0.042200
     54 H24          3.6260    -1.7340    -0.8720 hc         1 LX3       0.042200
     55 H25          3.6570    -3.4500     0.9660 hc         1 LX3       0.046200
     56 H26          2.8020    -2.3380     2.0200 hc         1 LX3       0.046200
     57 H27          0.4720    -1.4810     1.2800 ha         1 LX3       0.111000
     58 H28          2.4250    -4.8480    -0.5850 ha         1 LX3       0.111000
     59 H29          0.2420    -5.6080    -1.4960 ha         1 LX3       0.112000
     60 H30         -1.8200    -4.3180    -1.0430 ha         1 LX3       0.115000
     61 H31         -1.1290    -0.1480     0.0900 ha         1 LX3       0.175000
     62 H32         -4.1350    -0.1930     0.9250 ha         1 LX3       0.174000
     63 H33         -0.6560     1.5080     1.8650 ha         1 LX3       0.168500
     64 H34          0.0990     2.9190     0.9290 ha         1 LX3       0.168500
     65 H35         -1.2410     4.2530    -0.5410 h1         1 LX3       0.037700
     66 H36         -1.5410     2.2720    -1.8980 ho         1 LX3       0.445000
     67 H37         -3.2000     5.0040     0.6340 hc         1 LX3       0.062700
     68 H38         -3.5440     5.1520    -1.0850 hc         1 LX3       0.062700
     69 H39         -4.8300     3.0160    -1.0440 h1         1 LX3       0.050700
     70 H40         -6.5360     3.7540     0.2910 ho         1 LX3       0.442000
     71 H41         -5.2680     1.8190     1.0880 hc         1 LX3       0.052700
     72 H42         -4.2570     2.9520     1.9770 hc         1 LX3       0.052700
     73 C17          2.9270    -2.6310     0.9710 c3         1 LX3      -0.031100
@<TRIPOS>BOND
     1     1     2 1   
     2     1    31 1   
     3     1    32 1   
     4     1    33 1   
     5     2     3 1   
     6     2    34 1   
     7     2    35 1   
     8     3     4 1   
     9     3    36 1   
    10     3    37 1   
    11     4     5 1   
    12     4    38 1   
    13     4    39 1   
    14     5    19 1   
    15     5    20 2   
    16     6     7 1   
    17     6    40 1   
    18     7     8 1   
    19     7     9 1   
    20     7    10 1   
    21     8    41 1   
    22     8    42 1   
    23     8    43 1   
    24     9    44 1   
    25     9    45 1   
    26     9    46 1   
    27    10    11 1   
    28    10    47 1   
    29    10    48 1   
    30    11    12 1   
    31    11    49 1   
    32    11    50 1   
    33    12    13 1   
    34    12    51 1   
    35    12    52 1   
    36    13    53 1   
    37    13    54 1   
    38    13    73 1   
    39    14    15 ar  
    40    14    16 ar  
    41    14    73 1   
    42    15    19 ar  
    43    15    57 1   
    44    16    17 ar  
    45    16    58 1   
    46    17    18 ar  
    47    17    59 1   
    48    18    19 ar  
    49    18    60 1   
    50    20    21 1   
    51    20    61 1   
    52    21    22 2   
    53    21    62 1   
    54    22    23 1   
    55    22    30 1   
    56    23    24 2   
    57    23    25 1   
    58    24    63 1   
    59    24    64 1   
    60    25    26 1   
    61    25    27 1   
    62    25    65 1   
    63    26    66 1   
    64    27    28 1   
    65    27    67 1   
    66    27    68 1   
    67    28    29 1   
    68    28    30 1   
    69    28    69 1   
    70    29    70 1   
    71    30    71 1   
    72    30    72 1   
    73    55    73 1   
    74    56    73 1   
@<TRIPOS>SUBSTRUCTURE
     1 LX3         1 TEMP              0 ****  ****    0 ROOT
