@<TRIPOS>MOLECULE
LX4
   30    31     1     0     0
SMALL
No Charge or Current Charge


@<TRIPOS>ATOM
      1 N1          -9.1560   -33.1490   -14.6670 ns         1 LX4      -0.507900
      2 C4          -6.2380   -30.3660   -18.9970 c5         1 LX4      -0.067900
      3 C5          -5.8030   -31.2790   -16.6580 c          1 LX4       0.614100
      4 C6          -8.0640   -32.5280   -16.8060 c6         1 LX4       0.089000
      5 C7          -9.3940   -32.7000   -16.0350 c6         1 LX4       0.097000
      6 C8          -8.1970   -32.5950   -13.8650 c          1 LX4       0.557000
      7 N           -6.9840   -31.8000   -16.0570 n          1 LX4      -0.417800
      8 C           -4.9750   -29.5520   -19.3660 c5         1 LX4      -0.077400
      9 O           -5.0240   -30.5960   -16.0030 o          1 LX4      -0.589100
     10 C1          -4.0460   -30.6940   -19.8330 c5         1 LX4      -0.077400
     11 C2          -4.1510   -31.6710   -18.6330 c5         1 LX4      -0.067900
     12 C3          -5.6610   -31.5820   -18.1930 c5         1 LX4      -0.144700
     13 C9          -7.1670   -31.6740   -14.5630 c6         1 LX4       0.005000
     14 O1          -8.1390   -32.8690   -12.6760 o          1 LX4      -0.563000
     15 H1          -9.8170   -33.7780   -14.2250 hn         1 LX4       0.320500
     16 H3          -6.7580   -30.7070   -19.9000 hc         1 LX4       0.047450
     17 H4          -7.6890   -33.5280   -17.0660 h1         1 LX4       0.057700
     18 H5          -8.2880   -32.0030   -17.7460 h1         1 LX4       0.057700
     19 H6          -9.9230   -31.7360   -15.9960 h1         1 LX4       0.048200
     20 H7         -10.0410   -33.4230   -16.5520 h1         1 LX4       0.048200
     21 H8          -4.5640   -29.0120   -18.5040 hc         1 LX4       0.047700
     22 H9          -5.1680   -28.8180   -20.1570 hc         1 LX4       0.047700
     23 H10         -3.0190   -30.3550   -20.0070 hc         1 LX4       0.047700
     24 H11         -4.4030   -31.1540   -20.7640 hc         1 LX4       0.047700
     25 H12         -3.8670   -32.6910   -18.9160 hc         1 LX4       0.047450
     26 H13         -3.4590   -31.3710   -17.8370 hc         1 LX4       0.047450
     27 H14         -6.2060   -32.4840   -18.4820 hc         1 LX4       0.061700
     28 H15         -6.2090   -31.8550   -14.0590 h1         1 LX4       0.088200
     29 H16         -7.4750   -30.6460   -14.3330 h1         1 LX4       0.088200
     30 H2          -6.9620   -29.7760   -18.4230 hc         1 LX4       0.047450
@<TRIPOS>BOND
     1     1     5 1   
     2     1     6 1   
     3     1    15 1   
     4     2     8 1   
     5     2    12 1   
     6     2    16 1   
     7     2    30 1   
     8     3     7 1   
     9     3     9 2   
    10     3    12 1   
    11     4     5 1   
    12     4     7 1   
    13     4    17 1   
    14     4    18 1   
    15     5    19 1   
    16     5    20 1   
    17     6    13 1   
    18     6    14 2   
    19     7    13 1   
    20     8    10 1   
    21     8    21 1   
    22     8    22 1   
    23    10    11 1   
    24    10    23 1   
    25    10    24 1   
    26    11    12 1   
    27    11    25 1   
    28    11    26 1   
    29    12    27 1   
    30    13    28 1   
    31    13    29 1   
@<TRIPOS>SUBSTRUCTURE
     1 LX4         1 TEMP              0 ****  ****    0 ROOT
