@<TRIPOS>MOLECULE
LX4
   30    31     1     0     0
SMALL
bcc


@<TRIPOS>ATOM
      1 N1          -9.1690   -32.0430   -14.9290 ns         1 LX4      -0.574900
      2 C4          -6.5430   -30.8930   -18.9810 c5         1 LX4      -0.067900
      3 C5          -5.6210   -31.7740   -16.8100 c          1 LX4       0.681100
      4 C6          -7.7940   -33.0130   -16.6760 c6         1 LX4       0.089000
      5 C7          -9.1030   -32.3300   -16.3460 c6         1 LX4       0.097000
      6 C8          -8.1220   -31.9330   -14.1040 c          1 LX4       0.699500
      7 N           -6.6980   -32.2430   -16.1290 n          1 LX4      -0.484800
      8 C           -5.7230   -29.6020   -18.9570 c5         1 LX4      -0.077400
      9 O           -4.7020   -31.2200   -16.2220 o          1 LX4      -0.589100
     10 C1          -4.2560   -30.0480   -19.1220 c5         1 LX4      -0.077400
     11 C2          -4.2540   -31.5760   -18.9260 c5         1 LX4      -0.067900
     12 C3          -5.6150   -31.9300   -18.3210 c5         1 LX4      -0.144700
     13 C9          -6.7350   -32.1170   -14.6880 c6         1 LX4       0.005000
     14 O1          -8.2370   -31.7090   -12.9060 o          1 LX4      -0.638500
     15 H1         -10.0810   -31.8810   -14.5260 hn         1 LX4       0.320500
     16 H3          -6.7330   -31.2070   -20.0100 hc         1 LX4       0.047450
     17 H4          -7.7800   -34.0220   -16.2490 h1         1 LX4       0.057700
     18 H5          -7.7060   -33.1200   -17.7520 h1         1 LX4       0.057700
     19 H6          -9.2090   -31.4120   -16.9310 h1         1 LX4       0.048200
     20 H7          -9.9320   -32.9860   -16.6110 h1         1 LX4       0.048200
     21 H8          -5.8620   -29.0900   -18.0020 hc         1 LX4       0.047700
     22 H9          -6.0400   -28.9030   -19.7320 hc         1 LX4       0.047700
     23 H10         -3.6140   -29.5540   -18.3950 hc         1 LX4       0.047700
     24 H11         -3.8730   -29.7870   -20.1090 hc         1 LX4       0.047700
     25 H12         -4.1780   -32.0780   -19.8930 hc         1 LX4       0.047450
     26 H13         -3.4160   -31.9270   -18.3240 hc         1 LX4       0.047450
     27 H14         -5.9000   -32.9490   -18.5900 hc         1 LX4       0.061700
     28 H15         -6.2970   -32.9990   -14.2050 h1         1 LX4       0.088200
     29 H16         -6.1400   -31.2610   -14.3780 h1         1 LX4       0.088200
     30 H2          -7.5130   -30.7850   -18.4940 hc         1 LX4       0.047450
@<TRIPOS>BOND
     1     1     5 1   
     2     1     6 1   
     3     1    15 1   
     4     2     8 1   
     5     2    12 1   
     6     2    16 1   
     7     2    30 1   
     8     3     7 1   
     9     3     9 2   
    10     3    12 1   
    11     4     5 1   
    12     4     7 1   
    13     4    17 1   
    14     4    18 1   
    15     5    19 1   
    16     5    20 1   
    17     6    13 1   
    18     6    14 2   
    19     7    13 1   
    20     8    10 1   
    21     8    21 1   
    22     8    22 1   
    23    10    11 1   
    24    10    23 1   
    25    10    24 1   
    26    11    12 1   
    27    11    25 1   
    28    11    26 1   
    29    12    27 1   
    30    13    28 1   
    31    13    29 1   
@<TRIPOS>SUBSTRUCTURE
     1 LX4         1 TEMP              0 ****  ****    0 ROOT
