@<TRIPOS>MOLECULE
LX5
   25    25     1     0     0
SMALL
abcg2


@<TRIPOS>ATOM
      1 C1          -0.0320     0.0630     0.4180 c5         1 LX5       0.230300
      2 C2          -0.4750     1.5300     0.5630 c5         1 LX5      -0.127400
      3 C6          -1.3020    -2.1070     0.4120 c3         1 LX5       0.170600
      4 C5          -1.2410    -0.7010    -0.1500 c5         1 LX5      -0.079700
      5 C3          -1.8420     1.5970    -0.1120 c5         1 LX5       0.116300
      6 C4          -2.4230     0.2130     0.1530 c5         1 LX5       0.177300
      7 O7          -2.3210    -2.8410    -0.2230 oh         1 LX5      -0.656000
      8 O8          -3.5430    -0.1020    -0.6300 oh         1 LX5      -0.643000
      9 O9          -2.7100     2.5900     0.3740 oh         1 LX5      -0.676000
     10 O10          1.0630    -0.1190    -0.4740 os         1 LX5      -0.593700
     11 S11          2.5700    -0.1710     0.1720 s6         1 LX5       1.495300
     12 O12          2.5760    -1.3330     1.0660 o          1 LX5      -0.708867
     13 O13          3.3750    -0.3310    -1.0370 o          1 LX5      -0.708867
     14 O14          2.7570     1.1030     0.8720 o          1 LX5      -0.708867
     15 H1           0.2230    -0.3440     1.4020 h1         1 LX5       0.051700
     16 H21         -0.5860     1.7780     1.6210 hc         1 LX5       0.065200
     17 H2           0.2530     2.2220     0.1400 hc         1 LX5       0.065200
     18 H6          -0.3210    -2.5780     0.2690 h1         1 LX5       0.028200
     19 H61         -1.4670    -2.0440     1.4980 h1         1 LX5       0.028200
     20 H5          -1.1280    -0.7540    -1.2400 hc         1 LX5       0.094700
     21 H3          -1.7070     1.6980    -1.2000 h1         1 LX5       0.046700
     22 H4          -2.6600     0.1440     1.2290 h1         1 LX5       0.031700
     23 HO7         -2.2810    -3.7440     0.1030 ho         1 LX5       0.426000
     24 HO8         -4.2300     0.5430    -0.4330 ho         1 LX5       0.436000
     25 HO9         -2.4170     3.4440     0.0410 ho         1 LX5       0.441000
@<TRIPOS>BOND
     1     1     2 1   
     2     1     4 1   
     3     1    10 1   
     4     1    15 1   
     5     2     5 1   
     6     2    16 1   
     7     2    17 1   
     8     3     4 1   
     9     3     7 1   
    10     3    18 1   
    11     3    19 1   
    12     4     6 1   
    13     4    20 1   
    14     5     6 1   
    15     5     9 1   
    16     5    21 1   
    17     6     8 1   
    18     6    22 1   
    19     7    23 1   
    20     8    24 1   
    21     9    25 1   
    22    10    11 1   
    23    11    12 1   
    24    11    13 1   
    25    11    14 1   
@<TRIPOS>SUBSTRUCTURE
     1 LX5         1 TEMP              0 ****  ****    0 ROOT
