@<TRIPOS>MOLECULE
LX5
   25    25     1     0     0
SMALL
No Charge or Current Charge


@<TRIPOS>ATOM
      1 C1          -0.0610     0.0430     0.4860 c5         1 LX5       0.230300
      2 C2          -0.4550     1.5600     0.4330 c5         1 LX5      -0.127400
      3 C6          -1.3210    -2.2040     0.3060 c3         1 LX5       0.170600
      4 C5          -1.2660    -0.7230    -0.1450 c5         1 LX5      -0.079700
      5 C3          -1.8860     1.5640    -0.1650 c5         1 LX5       0.116300
      6 C4          -2.4350     0.1890     0.3220 c5         1 LX5       0.177300
      7 O7          -2.2850    -2.9490    -0.4510 oh         1 LX5      -0.656000
      8 O8          -3.6950    -0.1080    -0.2820 oh         1 LX5      -0.643000
      9 O9          -2.6700     2.6690     0.2950 oh         1 LX5      -0.676000
     10 O10          1.0790    -0.1750    -0.3680 os         1 LX5      -0.593700
     11 S11          2.5920    -0.1160     0.2700 s6         1 LX5       1.495300
     12 O12          2.6240    -1.2530     1.2000 o          1 LX5      -0.708867
     13 O13          3.4710    -0.2630    -0.8990 o          1 LX5      -0.708867
     14 O14          2.6640     1.1970     0.9250 o          1 LX5      -0.708867
     15 H1           0.1410    -0.2950     1.5130 h1         1 LX5       0.051700
     16 H21         -0.4410     1.9850     1.4430 hc         1 LX5       0.065200
     17 H2           0.2320     2.1600    -0.1750 hc         1 LX5       0.065200
     18 H6          -0.3260    -2.6480     0.1680 h1         1 LX5       0.028200
     19 H61         -1.5560    -2.2450     1.3780 h1         1 LX5       0.028200
     20 H5          -1.1870    -0.7260    -1.2390 hc         1 LX5       0.094700
     21 H3          -1.8320     1.5770    -1.2640 h1         1 LX5       0.046700
     22 H4          -2.5310     0.1730     1.4180 h1         1 LX5       0.031700
     23 HO7         -2.2760    -3.8660    -0.1000 ho         1 LX5       0.426000
     24 HO8         -4.2200     0.7190    -0.2050 ho         1 LX5       0.436000
     25 HO9         -2.2300     3.4880    -0.0280 ho         1 LX5       0.441000
@<TRIPOS>BOND
     1     1     2 1   
     2     1     4 1   
     3     1    10 1   
     4     1    15 1   
     5     2     5 1   
     6     2    16 1   
     7     2    17 1   
     8     3     4 1   
     9     3     7 1   
    10     3    18 1   
    11     3    19 1   
    12     4     6 1   
    13     4    20 1   
    14     5     6 1   
    15     5     9 1   
    16     5    21 1   
    17     6     8 1   
    18     6    22 1   
    19     7    23 1   
    20     8    24 1   
    21     9    25 1   
    22    10    11 1   
    23    11    12 1   
    24    11    13 1   
    25    11    14 1   
@<TRIPOS>SUBSTRUCTURE
     1 LX5         1 TEMP              0 ****  ****    0 ROOT
