@<TRIPOS>MOLECULE
LX6
   22    23     1     0     0
SMALL
No Charge or Current Charge


@<TRIPOS>ATOM
      1 C01         42.7230    59.3300     9.5910 cc         1 LX6      -0.167000
      2 C02         42.8110    58.9500     8.2740 cd         1 LX6       0.255000
      3 C03         41.5120    60.0250     9.8960 cc         1 LX6      -0.019300
      4 S04         41.3670    59.4460     7.3550 ss         1 LX6       0.145000
      5 C05         40.6750    60.1610     8.8170 cd         1 LX6      -0.216300
      6 C06         43.7150    59.0690    10.5790 cg         1 LX6       0.360000
      7 N07         44.5170    58.8740    11.4050 n1         1 LX6      -0.487000
      8 N08         43.8550    58.2680     7.6890 nv         1 LX6      -1.065000
      9 C09         41.1700    60.5370    11.2840 c6         1 LX6      -0.017100
     10 C10         39.3300    60.8530     8.8620 c6         1 LX6       0.004900
     11 C11         39.9820    61.5350    11.2370 c6         1 LX6      -0.073400
     12 C12         38.8420    61.0190    10.3230 c6         1 LX6      -0.071400
     13 H1          43.8780    58.1260     6.6790 hn         1 LX6       0.480000
     14 H2          44.7180    58.0980     8.2050 hn         1 LX6       0.480000
     15 H3          40.9070    59.6930    11.9360 hc         1 LX6       0.057700
     16 H4          39.4080    61.8420     8.3900 hc         1 LX6       0.049700
     17 H5          40.3340    62.5080    10.8660 hc         1 LX6       0.044200
     18 H6          37.9890    61.7100    10.3550 hc         1 LX6       0.043700
     19 H7          42.0330    61.0310    11.7530 hc         1 LX6       0.057700
     20 H8          38.5830    60.2940     8.2830 hc         1 LX6       0.049700
     21 H9          39.6030    61.7090    12.2530 hc         1 LX6       0.044200
     22 H10         38.4780    60.0550    10.7020 hc         1 LX6       0.043700
@<TRIPOS>BOND
     1     1     2 2   
     2     1     3 1   
     3     1     6 1   
     4     2     4 1   
     5     2     8 1   
     6     3     5 2   
     7     3     9 1   
     8     4     5 1   
     9     5    10 1   
    10     6     7 3   
    11     8    13 1   
    12     8    14 1   
    13     9    11 1   
    14     9    15 1   
    15     9    19 1   
    16    10    12 1   
    17    10    16 1   
    18    10    20 1   
    19    11    12 1   
    20    11    17 1   
    21    11    21 1   
    22    12    18 1   
    23    12    22 1   
@<TRIPOS>SUBSTRUCTURE
     1 LX6         1 TEMP              0 ****  ****    0 ROOT
