@<TRIPOS>MOLECULE
LX6
   22    23     1     0     0
SMALL
bcc


@<TRIPOS>ATOM
      1 C01         42.7180    59.3200     9.6340 cc         1 LX6      -0.167000
      2 C02         42.8050    58.9440     8.3050 cd         1 LX6       0.261500
      3 C03         41.5000    60.0230     9.9480 cc         1 LX6      -0.019300
      4 S04         41.3920    59.4480     7.4480 ss         1 LX6      -0.144800
      5 C05         40.6900    60.1630     8.8770 cd         1 LX6      -0.071400
      6 C06         43.7320    59.0380    10.5690 cg         1 LX6       0.270800
      7 N07         44.5690    58.8040    11.3320 n1         1 LX6      -0.397800
      8 N08         43.7770    58.2350     7.6940 nv         1 LX6      -0.816200
      9 C09         41.1390    60.5520    11.3010 c6         1 LX6      -0.017100
     10 C10         39.3570    60.8360     8.8650 c6         1 LX6       0.004900
     11 C11         39.9780    61.5410    11.2080 c6         1 LX6      -0.073400
     12 C12         38.8690    61.0160    10.3030 c6         1 LX6      -0.071400
     13 H1          43.8410    58.2630     6.6900 hn         1 LX6       0.424800
     14 H2          44.6670    58.1510     8.1590 hn         1 LX6       0.424800
     15 H3          40.8710    59.7180    11.9580 hc         1 LX6       0.057700
     16 H4          39.4290    61.8090     8.3680 hc         1 LX6       0.049700
     17 H5          40.3430    62.4960    10.8170 hc         1 LX6       0.044200
     18 H6          38.0160    61.6960    10.3130 hc         1 LX6       0.043700
     19 H7          42.0070    61.0310    11.7610 hc         1 LX6       0.057700
     20 H8          38.6310    60.2540     8.2920 hc         1 LX6       0.049700
     21 H9          39.5880    61.7400    12.2070 hc         1 LX6       0.044200
     22 H10         38.5100    60.0560    10.6850 hc         1 LX6       0.043700
@<TRIPOS>BOND
     1     1     2 2   
     2     1     3 1   
     3     1     6 1   
     4     2     4 1   
     5     2     8 1   
     6     3     5 2   
     7     3     9 1   
     8     4     5 1   
     9     5    10 1   
    10     6     7 3   
    11     8    13 1   
    12     8    14 1   
    13     9    11 1   
    14     9    15 1   
    15     9    19 1   
    16    10    12 1   
    17    10    16 1   
    18    10    20 1   
    19    11    12 1   
    20    11    17 1   
    21    11    21 1   
    22    12    18 1   
    23    12    22 1   
@<TRIPOS>SUBSTRUCTURE
     1 LX6         1 TEMP              0 ****  ****    0 ROOT
