@<TRIPOS>MOLECULE
LX7
   22    22     1     0     0
SMALL
abcg2


@<TRIPOS>ATOM
      1 N1         -17.2770   -17.8120     2.0420 nt         1 LX7      -0.554000
      2 C4         -14.9790   -20.2020    -0.7890 ca         1 LX7      -0.107500
      3 C5         -16.1590   -19.4830    -0.9600 ca         1 LX7       0.073600
      4 C6         -16.3720   -18.1850     1.1370 cs         1 LX7       0.482400
      5 C7         -13.4370   -20.5800    -4.9530 c3         1 LX7       0.514000
      6 N          -16.8620   -18.9310     0.1220 ns         1 LX7      -0.372100
      7 C          -16.7150   -19.3710    -2.2300 ca         1 LX7      -0.107500
      8 C1         -16.0990   -19.9540    -3.3260 ca         1 LX7      -0.083500
      9 C2         -14.9130   -20.6410    -3.1410 ca         1 LX7       0.084100
     10 C3         -14.3480   -20.7710    -1.8830 ca         1 LX7      -0.083500
     11 F          -12.4160   -20.1110    -4.2330 f          1 LX7      -0.108000
     12 F1         -13.9940   -19.5290    -5.5590 f          1 LX7      -0.108000
     13 F2         -12.9560   -21.3890    -5.8840 f          1 LX7      -0.108000
     14 S          -14.7630   -17.7220     1.2780 s          1 LX7      -0.637400
     15 H1         -16.9940   -17.2290     2.8100 hn         1 LX7       0.330000
     16 H2         -18.2500   -18.0690     1.9840 hn         1 LX7       0.330000
     17 H3         -14.5540   -20.3290     0.1950 ha         1 LX7       0.135500
     18 H4         -17.8680   -18.9990     0.0530 hn         1 LX7       0.308500
     19 H5         -17.6380   -18.8220    -2.3690 ha         1 LX7       0.135500
     20 H6         -16.5490   -19.8740    -4.3060 ha         1 LX7       0.139000
     21 H7         -13.4400   -21.3420    -1.7450 ha         1 LX7       0.139000
     22 O          -14.3110   -21.2790    -4.2200 os         1 LX7      -0.402100
@<TRIPOS>BOND
     1     1     4 1   
     2     1    15 1   
     3     1    16 1   
     4     2     3 ar  
     5     2    10 ar  
     6     2    17 1   
     7     3     6 1   
     8     3     7 ar  
     9     4     6 1   
    10     4    14 2   
    11     5    11 1   
    12     5    12 1   
    13     5    13 1   
    14     5    22 1   
    15     6    18 1   
    16     7     8 ar  
    17     7    19 1   
    18     8     9 ar  
    19     8    20 1   
    20     9    10 ar  
    21     9    22 1   
    22    10    21 1   
@<TRIPOS>SUBSTRUCTURE
     1 LX7         1 TEMP              0 ****  ****    0 ROOT
