@<TRIPOS>MOLECULE
LX7
   22    22     1     0     0
SMALL
No Charge or Current Charge


@<TRIPOS>ATOM
      1 N1         -17.3490   -18.0330     2.2090 nt         1 LX7      -0.554000
      2 C4         -14.8210   -19.5540    -1.0890 ca         1 LX7      -0.107500
      3 C5         -16.2090   -19.3230    -0.9990 ca         1 LX7       0.073600
      4 C6         -16.3960   -18.1710     1.2780 cs         1 LX7       0.482400
      5 C7         -13.1800   -20.9890    -4.8900 c3         1 LX7       0.514000
      6 N          -16.8360   -18.8730     0.1890 ns         1 LX7      -0.372100
      7 C          -17.0160   -19.5870    -2.1200 ca         1 LX7      -0.107500
      8 C1         -16.4460   -20.0480    -3.3190 ca         1 LX7      -0.083500
      9 C2         -15.0620   -20.2630    -3.4160 ca         1 LX7       0.084100
     10 C3         -14.2470   -20.0170    -2.2880 ca         1 LX7      -0.083500
     11 F          -12.6890   -21.9560    -4.0810 f          1 LX7      -0.108000
     12 F1         -12.4100   -19.8870    -4.7370 f          1 LX7      -0.108000
     13 F2         -13.0080   -21.4150    -6.1610 f          1 LX7      -0.108000
     14 S          -14.9130   -17.4400     1.4810 s          1 LX7      -0.637400
     15 H1         -17.1480   -17.5060     3.0460 hn         1 LX7       0.330000
     16 H2         -18.2600   -18.4520     2.0960 hn         1 LX7       0.330000
     17 H3         -14.1760   -19.3990    -0.2300 ha         1 LX7       0.135500
     18 H4         -17.8090   -19.1450     0.2450 hn         1 LX7       0.308500
     19 H5         -18.0910   -19.4270    -2.0680 ha         1 LX7       0.135500
     20 H6         -17.0810   -20.2410    -4.1810 ha         1 LX7       0.139000
     21 H7         -13.1740   -20.1810    -2.3130 ha         1 LX7       0.139000
     22 O          -14.5730   -20.7180    -4.6290 os         1 LX7      -0.402100
@<TRIPOS>BOND
     1     1     4 1   
     2     1    15 1   
     3     1    16 1   
     4     2     3 ar  
     5     2    10 ar  
     6     2    17 1   
     7     3     6 1   
     8     3     7 ar  
     9     4     6 1   
    10     4    14 2   
    11     5    11 1   
    12     5    12 1   
    13     5    13 1   
    14     5    22 1   
    15     6    18 1   
    16     7     8 ar  
    17     7    19 1   
    18     8     9 ar  
    19     8    20 1   
    20     9    10 ar  
    21     9    22 1   
    22    10    21 1   
@<TRIPOS>SUBSTRUCTURE
     1 LX7         1 TEMP              0 ****  ****    0 ROOT
