@<TRIPOS>MOLECULE
LX8
   50    52     1     0     0
SMALL
bcc


@<TRIPOS>ATOM
      1 CAA          6.9210    -0.0840    -1.5950 c2         1 LX8      -0.195000
      2 CAB         -6.9140     2.0810    -0.0480 c3         1 LX8      -0.157100
      3 CAC          6.0320     0.6280     1.1140 c3         1 LX8      -0.086100
      4 CAD          5.0550     2.4800    -0.2100 c3         1 LX8      -0.086100
      5 CAE         -4.9800    -1.8470     0.0380 c3         1 LX8      -0.117100
      6 CAF         -3.6040    -0.4230    -1.5220 c3         1 LX8      -0.117100
      7 OAG         -6.5830     0.2410    -1.5540 o          1 LX8      -0.532000
      8 OAH          4.5760    -1.9100     0.0240 o          1 LX8      -0.551500
      9 CAI          5.7310     0.4700    -1.4060 c2         1 LX8      -0.165200
     10 CAJ          0.1600     1.1780     0.5460 ca         1 LX8      -0.017000
     11 CAK          0.1070    -1.6510     0.5870 ca         1 LX8      -0.188000
     12 CAL          2.6310     1.0510     0.2100 cc         1 LX8      -0.022200
     13 CAM         -2.4240     0.9880     0.9390 c5         1 LX8      -0.037100
     14 OAN         -5.1280     0.5950     0.1200 os         1 LX8      -0.454900
     15 OAO         -2.2560    -1.3990     0.9180 os         1 LX8      -0.297900
     16 OAP          2.4270    -1.6650     0.2770 os         1 LX8      -0.340200
     17 CAQ         -6.2110     0.8740    -0.5990 c          1 LX8       0.656100
     18 CAR         -1.0220     0.5090     0.7220 ca         1 LX8      -0.200300
     19 CAS         -1.0330    -0.8870     0.7360 ca         1 LX8       0.173100
     20 CAT          3.7690     0.3320     0.0820 cd         1 LX8      -0.205400
     21 CAU          3.6690    -1.1230     0.1200 c          1 LX8       0.750800
     22 CAV          1.3490     0.4450     0.3900 ca         1 LX8      -0.195800
     23 CAW          1.2940    -0.9470     0.4180 ca         1 LX8       0.210100
     24 CAX         -3.2210    -0.3340     0.9870 c5         1 LX8       0.141100
     25 CAY          5.1490     0.9520    -0.0960 c3         1 LX8       0.051400
     26 CAZ         -4.2500    -0.5220    -0.1470 c3         1 LX8       0.175800
     27 HAA          7.5990    -0.3090    -0.7820 ha         1 LX8       0.113500
     28 HAAA         7.2610    -0.3420    -2.5900 ha         1 LX8       0.113500
     29 HAB         -7.7550     2.3530    -0.6790 hc         1 LX8       0.069033
     30 HABA        -7.2820     1.8730     0.9580 hc         1 LX8       0.069033
     31 HABB        -6.2310     2.9270     0.0250 hc         1 LX8       0.069033
     32 HAC          5.5640     1.0000     2.0260 hc         1 LX8       0.040200
     33 HACA         6.2100    -0.4390     1.2300 hc         1 LX8       0.040200
     34 HACB         7.0010     1.1210     1.0190 hc         1 LX8       0.040200
     35 HAD          6.0550     2.8860    -0.3600 hc         1 LX8       0.040200
     36 HADA         4.4430     2.7960    -1.0570 hc         1 LX8       0.040200
     37 HADB         4.6480     2.9320     0.6960 hc         1 LX8       0.040200
     38 HAE         -4.2710    -2.6720    -0.0200 hc         1 LX8       0.056533
     39 HAEA        -5.4700    -1.8920     1.0120 hc         1 LX8       0.056533
     40 HAEB        -5.7290    -2.0050    -0.7350 hc         1 LX8       0.056533
     41 HAF         -4.3270    -0.6160    -2.3110 hc         1 LX8       0.056533
     42 HAFA        -3.1640     0.5580    -1.7060 hc         1 LX8       0.056533
     43 HAFB        -2.8170    -1.1710    -1.6170 hc         1 LX8       0.056533
     44 HAI          5.1010     0.6660    -2.2710 ha         1 LX8       0.115000
     45 HAJ          0.1960     2.2610     0.5310 ha         1 LX8       0.139000
     46 HAK          0.0870    -2.7320     0.6010 ha         1 LX8       0.174000
     47 HAL          2.6610     2.1330     0.1820 ha         1 LX8       0.141000
     48 HAM         -2.5200     1.5340     1.8790 hc         1 LX8       0.070700
     49 HAMA        -2.7620     1.6600     0.1500 hc         1 LX8       0.070700
     50 HAX         -3.7450    -0.4390     1.9410 h1         1 LX8       0.082700
@<TRIPOS>BOND
     1     1     9 2   
     2     1    27 1   
     3     1    28 1   
     4     2    17 1   
     5     2    29 1   
     6     2    30 1   
     7     2    31 1   
     8     3    25 1   
     9     3    32 1   
    10     3    33 1   
    11     3    34 1   
    12     4    25 1   
    13     4    35 1   
    14     4    36 1   
    15     4    37 1   
    16     5    26 1   
    17     5    38 1   
    18     5    39 1   
    19     5    40 1   
    20     6    26 1   
    21     6    41 1   
    22     6    42 1   
    23     6    43 1   
    24     7    17 2   
    25     8    21 2   
    26     9    25 1   
    27     9    44 1   
    28    10    18 ar  
    29    10    22 ar  
    30    10    45 1   
    31    11    19 ar  
    32    11    23 ar  
    33    11    46 1   
    34    12    20 2   
    35    12    22 1   
    36    12    47 1   
    37    13    18 1   
    38    13    24 1   
    39    13    48 1   
    40    13    49 1   
    41    14    17 1   
    42    14    26 1   
    43    15    19 1   
    44    15    24 1   
    45    16    21 1   
    46    16    23 1   
    47    18    19 ar  
    48    20    21 1   
    49    20    25 1   
    50    22    23 ar  
    51    24    26 1   
    52    24    50 1   
@<TRIPOS>SUBSTRUCTURE
     1 LX8         1 TEMP              0 ****  ****    0 ROOT
