@<TRIPOS>MOLECULE
LX8
   50    52     1     0     0
SMALL
No Charge or Current Charge


@<TRIPOS>ATOM
      1 CAA          7.0270     0.3950    -1.8110 c2         1 LX8      -0.295000
      2 CAB         -6.8960     2.2020    -0.3450 c3         1 LX8      -0.157100
      3 CAC          6.0570     0.5630     1.0750 c3         1 LX8      -0.086100
      4 CAD          5.0980     2.4520    -0.2620 c3         1 LX8      -0.086100
      5 CAE         -5.1280    -1.8000     0.0570 c3         1 LX8      -0.117100
      6 CAF         -3.5560    -0.4330    -1.4590 c3         1 LX8      -0.117100
      7 OAG         -6.5160     0.2750    -1.7510 o          1 LX8      -0.483000
      8 OAH          4.6190    -1.9620    -0.1120 o          1 LX8      -0.476000
      9 CAI          5.7310     0.3900    -1.4510 c2         1 LX8      -0.215200
     10 CAJ          0.1500     1.0760     0.7260 ca         1 LX8       0.001000
     11 CAK          0.0770    -1.7470     0.6810 ca         1 LX8      -0.170000
     12 CAL          2.5970     1.0410     0.3030 cc         1 LX8      -0.072200
     13 CAM         -2.4090     0.9390     1.1740 c5         1 LX8      -0.037100
     14 OAN         -5.1400     0.6430     0.0780 os         1 LX8      -0.478100
     15 OAO         -2.3180    -1.5390     1.0920 os         1 LX8      -0.321100
     16 OAP          2.4270    -1.7810     0.2750 os         1 LX8      -0.340200
     17 CAQ         -6.1830     0.9290    -0.7740 c          1 LX8       0.607100
     18 CAR         -1.0500     0.3750     0.9180 ca         1 LX8      -0.200300
     19 CAS         -1.0820    -0.9960     0.8930 ca         1 LX8       0.173100
     20 CAT          3.7460     0.2860     0.0860 cd         1 LX8      -0.205400
     21 CAU          3.6600    -1.2240     0.0730 c          1 LX8       0.675300
     22 CAV          1.3370     0.3420     0.5050 ca         1 LX8      -0.195800
     23 CAW          1.2880    -1.0630     0.4860 ca         1 LX8       0.210100
     24 CAX         -3.2570    -0.4010     1.1200 c5         1 LX8       0.164300
     25 CAY          5.1440     0.9040    -0.1370 c3         1 LX8       0.051400
     26 CAZ         -4.2690    -0.5110    -0.0770 c3         1 LX8       0.199000
     27 HAA          7.8130     0.7820    -1.1620 ha         1 LX8       0.163500
     28 HAAA         7.3470     0.0120    -2.7810 ha         1 LX8       0.163500
     29 HAB         -7.7320     2.4610    -1.0040 hc         1 LX8       0.069033
     30 HABA        -7.2160     2.0930     0.6970 hc         1 LX8       0.069033
     31 HABB        -6.1620     3.0120    -0.2790 hc         1 LX8       0.069033
     32 HAC          5.5670     0.8420     2.0160 hc         1 LX8       0.040200
     33 HACA         6.2960    -0.5040     1.1230 hc         1 LX8       0.040200
     34 HACB         7.0070     1.1080     1.0250 hc         1 LX8       0.040200
     35 HAD          6.0970     2.8560    -0.4670 hc         1 LX8       0.040200
     36 HADA         4.4440     2.7620    -1.0860 hc         1 LX8       0.040200
     37 HADB         4.7430     2.9180     0.6650 hc         1 LX8       0.040200
     38 HAE         -4.4860    -2.6860     0.1250 hc         1 LX8       0.056533
     39 HAEA        -5.7470    -1.7620     0.9610 hc         1 LX8       0.056533
     40 HAEB        -5.7860    -1.9510    -0.8050 hc         1 LX8       0.056533
     41 HAF         -4.2350    -0.6720    -2.2850 hc         1 LX8       0.056533
     42 HAFA        -3.1420     0.5660    -1.6370 hc         1 LX8       0.056533
     43 HAFB        -2.7320    -1.1530    -1.5110 hc         1 LX8       0.056533
     44 HAI          4.9880     0.0050    -2.1520 ha         1 LX8       0.165000
     45 HAJ          0.1610     2.1640     0.7490 ha         1 LX8       0.121000
     46 HAK          0.0400    -2.8310     0.6660 ha         1 LX8       0.156000
     47 HAL          2.6190     2.1270     0.3260 ha         1 LX8       0.191000
     48 HAM         -2.4790     1.4180     2.1570 hc         1 LX8       0.070700
     49 HAMA        -2.7130     1.6790     0.4260 hc         1 LX8       0.070700
     50 HAX         -3.8470    -0.4870     2.0420 h1         1 LX8       0.082700
@<TRIPOS>BOND
     1     1     9 2   
     2     1    27 1   
     3     1    28 1   
     4     2    17 1   
     5     2    29 1   
     6     2    30 1   
     7     2    31 1   
     8     3    25 1   
     9     3    32 1   
    10     3    33 1   
    11     3    34 1   
    12     4    25 1   
    13     4    35 1   
    14     4    36 1   
    15     4    37 1   
    16     5    26 1   
    17     5    38 1   
    18     5    39 1   
    19     5    40 1   
    20     6    26 1   
    21     6    41 1   
    22     6    42 1   
    23     6    43 1   
    24     7    17 2   
    25     8    21 2   
    26     9    25 1   
    27     9    44 1   
    28    10    18 ar  
    29    10    22 ar  
    30    10    45 1   
    31    11    19 ar  
    32    11    23 ar  
    33    11    46 1   
    34    12    20 2   
    35    12    22 1   
    36    12    47 1   
    37    13    18 1   
    38    13    24 1   
    39    13    48 1   
    40    13    49 1   
    41    14    17 1   
    42    14    26 1   
    43    15    19 1   
    44    15    24 1   
    45    16    21 1   
    46    16    23 1   
    47    18    19 ar  
    48    20    21 1   
    49    20    25 1   
    50    22    23 ar  
    51    24    26 1   
    52    24    50 1   
@<TRIPOS>SUBSTRUCTURE
     1 LX8         1 TEMP              0 ****  ****    0 ROOT
