@<TRIPOS>MOLECULE
LX9
   53    58     1     0     0
SMALL
abcg2


@<TRIPOS>ATOM
      1 N1           0.0410    -0.4920    -0.3540 na         1 LX9       0.234000
      2 N2          -0.0190     0.8460    -0.5090 nc         1 LX9      -0.579800
      3 C3          -1.2940     1.1560    -0.4320 cd         1 LX9       0.493900
      4 C4          -2.0980    -0.0060    -0.2310 cd         1 LX9      -0.197000
      5 C5          -1.1820    -1.0310    -0.1940 cc         1 LX9      -0.112000
      6 C7          -3.5440    -0.1210    -0.0860 ca         1 LX9       0.044000
      7 C8          -4.3030     0.9070     0.4780 ca         1 LX9      -0.124000
      8 C10         -5.6780     0.7960     0.6200 ca         1 LX9      -0.045300
      9 C11         -6.3210    -0.3700     0.2000 ca         1 LX9      -0.159600
     10 C12         -5.5720    -1.4070    -0.3510 ca         1 LX9      -0.047000
     11 C14         -4.2050    -1.2820    -0.5020 ca         1 LX9      -0.131000
     12 C16         -7.7910    -0.5320     0.3570 c          1 LX9       0.576600
     13 N17         -8.4670     0.5870     0.6700 ns         1 LX9      -0.504900
     14 C19         -7.8830     1.9140     0.6400 c6         1 LX9       0.113000
     15 C22         -6.4970     1.8840     1.2520 c6         1 LX9      -0.051100
     16 O25         -8.3410    -1.6200     0.2200 o          1 LX9      -0.568000
     17 N26         -1.7210     2.4590    -0.5130 nv         1 LX9      -1.010900
     18 C29          1.2800    -1.1500    -0.3630 ca         1 LX9       0.026800
     19 C30          2.4520    -0.4080    -0.2680 ca         1 LX9      -0.095000
     20 C32          3.6960    -1.0380    -0.2680 cp         1 LX9      -0.009000
     21 C33          3.7460    -2.4300    -0.3570 ca         1 LX9      -0.112000
     22 C35          2.5740    -3.1640    -0.4490 ca         1 LX9      -0.093000
     23 C37          1.3380    -2.5380    -0.4620 ca         1 LX9      -0.139000
     24 C39          4.9340    -0.2380    -0.1710 cp         1 LX9      -0.026000
     25 C40          6.0130    -0.7110     0.5610 ca         1 LX9      -0.112000
     26 C42          7.1610     0.0730     0.6250 ca         1 LX9      -0.054200
     27 N43          8.3420    -0.1440     1.2720 na         1 LX9      -0.223700
     28 C45          9.1810     0.9090     1.0510 cc         1 LX9      -0.160100
     29 C47          8.5630     1.8360     0.2600 cd         1 LX9      -0.240200
     30 C49          7.2620     1.3230    -0.0270 ca         1 LX9      -0.092800
     31 C50          6.1640     1.7830    -0.7630 ca         1 LX9      -0.061000
     32 C52          5.0240     1.0100    -0.8260 ca         1 LX9      -0.126000
     33 H5          -1.3340    -2.0840    -0.0290 h4         1 LX9       0.160000
     34 H8          -3.8140     1.8050     0.8360 ha         1 LX9       0.128000
     35 H12         -6.0660    -2.3110    -0.6810 ha         1 LX9       0.136000
     36 H14         -3.6470    -2.0870    -0.9630 ha         1 LX9       0.114000
     37 HN17        -9.4720     0.5120     0.7100 hn         1 LX9       0.318500
     38 H19         -7.8320     2.2920    -0.3870 h1         1 LX9       0.043200
     39 H19A        -8.5340     2.5830     1.2010 h1         1 LX9       0.043200
     40 H22         -6.5740     1.7030     2.3290 hc         1 LX9       0.063200
     41 H22A        -6.0160     2.8540     1.1240 hc         1 LX9       0.063200
     42 HN26        -1.0240     3.0890    -0.8820 hn         1 LX9       0.450500
     43 HN2A        -2.6010     2.5810    -0.9920 hn         1 LX9       0.450500
     44 H30          2.3890     0.6670    -0.1700 ha         1 LX9       0.149000
     45 H33          4.7000    -2.9410    -0.3810 ha         1 LX9       0.119000
     46 H35          2.6200    -4.2420    -0.5320 ha         1 LX9       0.117000
     47 H37          0.4430    -3.1360    -0.5610 ha         1 LX9       0.118000
     48 H40          5.9590    -1.6550     1.0910 ha         1 LX9       0.114000
     49 H45         10.1690     0.9190     1.4830 h4         1 LX9       0.212000
     50 H47          8.9860     2.7690    -0.0760 ha         1 LX9       0.206000
     51 H50          6.2070     2.7310    -1.2850 ha         1 LX9       0.116000
     52 H52          4.1850     1.3590    -1.4150 ha         1 LX9       0.117000
     53 HN43         8.5690    -0.9570     1.8200 hn         1 LX9       0.349000
@<TRIPOS>BOND
     1     1     2 1   
     2     1     5 1   
     3     1    18 1   
     4     2     3 2   
     5     3     4 1   
     6     3    17 1   
     7     4     5 2   
     8     4     6 1   
     9     5    33 1   
    10     6     7 ar  
    11     6    11 ar  
    12     7     8 ar  
    13     7    34 1   
    14     8     9 ar  
    15     8    15 1   
    16     9    10 ar  
    17     9    12 1   
    18    10    11 ar  
    19    10    35 1   
    20    11    36 1   
    21    12    13 1   
    22    12    16 2   
    23    13    14 1   
    24    13    37 1   
    25    14    15 1   
    26    14    38 1   
    27    14    39 1   
    28    15    40 1   
    29    15    41 1   
    30    17    42 1   
    31    17    43 1   
    32    18    19 ar  
    33    18    23 ar  
    34    19    20 ar  
    35    19    44 1   
    36    20    21 ar  
    37    20    24 1   
    38    21    22 ar  
    39    21    45 1   
    40    22    23 ar  
    41    22    46 1   
    42    23    47 1   
    43    24    25 ar  
    44    24    32 ar  
    45    25    26 ar  
    46    25    48 1   
    47    26    27 1   
    48    26    30 ar  
    49    27    28 1   
    50    27    53 1   
    51    28    29 2   
    52    28    49 1   
    53    29    30 1   
    54    29    50 1   
    55    30    31 ar  
    56    31    32 ar  
    57    31    51 1   
    58    32    52 1   
@<TRIPOS>SUBSTRUCTURE
     1 LX9         1 TEMP              0 ****  ****    0 ROOT
