@<TRIPOS>MOLECULE
LX9
   53    58     1     0     0
SMALL
No Charge or Current Charge


@<TRIPOS>ATOM
      1 N1           0.0230    -0.2760    -0.6850 na         1 LX9       0.234000
      2 N2          -0.1310     1.0080    -1.1510 nc         1 LX9      -0.579800
      3 C3          -1.3970     1.1880    -0.9080 cd         1 LX9       0.493900
      4 C4          -2.0780     0.0920    -0.3030 cd         1 LX9      -0.197000
      5 C5          -1.1240    -0.8930    -0.2010 cc         1 LX9      -0.112000
      6 C7          -3.5090    -0.0700     0.0540 ca         1 LX9       0.044000
      7 C8          -4.3750     1.0330     0.2200 ca         1 LX9      -0.124000
      8 C10         -5.7300     0.8510     0.5590 ca         1 LX9      -0.045300
      9 C11         -6.2440    -0.4470     0.7530 ca         1 LX9      -0.159600
     10 C12         -5.3810    -1.5510     0.6160 ca         1 LX9      -0.047000
     11 C14         -4.0320    -1.3620     0.2730 ca         1 LX9      -0.131000
     12 C16         -7.6940    -0.6530     1.1200 c          1 LX9       0.576600
     13 N17         -8.5160     0.4450     1.0360 ns         1 LX9      -0.504900
     14 C19         -8.1190     1.7650     0.5340 c6         1 LX9       0.113000
     15 C22         -6.6280     2.0670     0.7860 c6         1 LX9      -0.051100
     16 O25         -8.1410    -1.7290     1.4840 o          1 LX9      -0.568000
     17 N26         -1.9460     2.3380    -1.3290 nv         1 LX9      -1.010900
     18 C29          1.2600    -0.9240    -0.7960 ca         1 LX9       0.026800
     19 C30          2.4520    -0.2500    -0.4560 ca         1 LX9      -0.095000
     20 C32          3.7170    -0.8840    -0.5490 cp         1 LX9      -0.009000
     21 C33          3.7520    -2.2270    -0.9990 ca         1 LX9      -0.112000
     22 C35          2.5720    -2.9070    -1.3430 ca         1 LX9      -0.093000
     23 C37          1.3310    -2.2600    -1.2420 ca         1 LX9      -0.139000
     24 C39          4.9760    -0.1580    -0.1830 cp         1 LX9      -0.026000
     25 C40          6.0610    -0.8450     0.4360 ca         1 LX9      -0.112000
     26 C42          7.2180    -0.1280     0.7620 ca         1 LX9      -0.054200
     27 N43          8.3860    -0.5740     1.3640 na         1 LX9      -0.223700
     28 C45          9.2990     0.4950     1.5060 cc         1 LX9      -0.160100
     29 C47          8.6330     1.5880     0.9690 cd         1 LX9      -0.240200
     30 C49          7.3270     1.2060     0.5010 ca         1 LX9      -0.092800
     31 C50          6.3000     1.9360    -0.1050 ca         1 LX9      -0.061000
     32 C52          5.1200     1.2400    -0.4450 ca         1 LX9      -0.126000
     33 H5          -1.1460    -1.9090     0.1690 h4         1 LX9       0.160000
     34 H8          -4.0010     2.0460     0.1330 ha         1 LX9       0.128000
     35 H12         -5.7540    -2.5620     0.7690 ha         1 LX9       0.136000
     36 H14         -3.4000    -2.2390     0.1640 ha         1 LX9       0.114000
     37 HN17        -9.4840     0.2940     1.2940 hn         1 LX9       0.318500
     38 H19         -8.3130     1.7830    -0.5480 h1         1 LX9       0.043200
     39 H19A        -8.7470     2.5370     1.0020 h1         1 LX9       0.043200
     40 H22         -6.5040     2.4010     1.8250 hc         1 LX9       0.063200
     41 H22A        -6.3140     2.9080     0.1530 hc         1 LX9       0.063200
     42 HN26        -1.3650     2.9120    -1.9310 hn         1 LX9       0.450500
     43 HN2A        -2.9370     2.3370    -1.5340 hn         1 LX9       0.450500
     44 H30          2.3940     0.7740    -0.0960 ha         1 LX9       0.149000
     45 H33          4.7030    -2.7440    -1.0970 ha         1 LX9       0.119000
     46 H35          2.6220    -3.9370    -1.6920 ha         1 LX9       0.117000
     47 H37          0.4270    -2.7960    -1.5200 ha         1 LX9       0.118000
     48 H40          5.9930    -1.9050     0.6660 ha         1 LX9       0.114000
     49 H45         10.2860     0.3920     1.9510 h4         1 LX9       0.212000
     50 H47          9.0470     2.5930     0.9120 ha         1 LX9       0.206000
     51 H50          6.4080     2.9990    -0.3080 ha         1 LX9       0.116000
     52 H52          4.3160     1.7870    -0.9290 ha         1 LX9       0.117000
     53 HN43         8.5540    -1.5320     1.6590 hn         1 LX9       0.349000
@<TRIPOS>BOND
     1     1     2 1   
     2     1     5 1   
     3     1    18 1   
     4     2     3 2   
     5     3     4 1   
     6     3    17 1   
     7     4     5 2   
     8     4     6 1   
     9     5    33 1   
    10     6     7 ar  
    11     6    11 ar  
    12     7     8 ar  
    13     7    34 1   
    14     8     9 ar  
    15     8    15 1   
    16     9    10 ar  
    17     9    12 1   
    18    10    11 ar  
    19    10    35 1   
    20    11    36 1   
    21    12    13 1   
    22    12    16 2   
    23    13    14 1   
    24    13    37 1   
    25    14    15 1   
    26    14    38 1   
    27    14    39 1   
    28    15    40 1   
    29    15    41 1   
    30    17    42 1   
    31    17    43 1   
    32    18    19 ar  
    33    18    23 ar  
    34    19    20 ar  
    35    19    44 1   
    36    20    21 ar  
    37    20    24 1   
    38    21    22 ar  
    39    21    45 1   
    40    22    23 ar  
    41    22    46 1   
    42    23    47 1   
    43    24    25 ar  
    44    24    32 ar  
    45    25    26 ar  
    46    25    48 1   
    47    26    27 1   
    48    26    30 ar  
    49    27    28 1   
    50    27    53 1   
    51    28    29 2   
    52    28    49 1   
    53    29    30 1   
    54    29    50 1   
    55    30    31 ar  
    56    31    32 ar  
    57    31    51 1   
    58    32    52 1   
@<TRIPOS>SUBSTRUCTURE
     1 LX9         1 TEMP              0 ****  ****    0 ROOT
