@<TRIPOS>MOLECULE
LXA
   29    30     1     0     0
SMALL
abcg2


@<TRIPOS>ATOM
      1 N1         -28.6610    -9.3840   -31.6310 na         1 LXA      -0.311600
      2 C4         -28.3490   -10.5430   -32.2640 cc         1 LXA       0.391800
      3 C5         -27.9800    -8.3760   -32.2620 ca         1 LXA      -0.075200
      4 C6         -27.9140    -7.0040   -32.0540 ca         1 LXA      -0.115000
      5 C7         -27.1020    -6.2840   -32.9150 ca         1 LXA      -0.093000
      6 C8         -26.3850    -6.9120   -33.9450 ca         1 LXA      -0.135000
      7 C10        -27.2700    -9.0230   -33.2880 ca         1 LXA       0.072400
      8 N          -28.8230   -12.8750   -32.8050 ns         1 LXA      -0.501900
      9 C          -29.9260   -14.7710   -36.9830 c3         1 LXA       0.141900
     10 O          -30.0920   -13.7450   -36.0350 os         1 LXA      -0.414000
     11 C1         -29.3270   -13.9550   -34.8920 c3         1 LXA       0.077600
     12 C2         -29.5990   -12.8350   -33.9040 c          1 LXA       0.606100
     13 C3         -28.8990   -11.8560   -31.7990 c3         1 LXA       0.098700
     14 C9         -26.4590    -8.2790   -34.1450 ca         1 LXA      -0.047000
     15 N2         -27.5220   -10.3750   -33.2560 nd         1 LXA      -0.572100
     16 O1         -30.4590   -11.9930   -34.0770 o          1 LXA      -0.557100
     17 H1         -29.2800    -9.2880   -30.8420 hn         1 LXA       0.355000
     18 H2         -28.4650    -6.5180   -31.2600 ha         1 LXA       0.116000
     19 H3         -27.0160    -5.2130   -32.7890 ha         1 LXA       0.112000
     20 H4         -25.7620    -6.3100   -34.5940 ha         1 LXA       0.113000
     21 H5         -28.0620   -13.5310   -32.7550 hn         1 LXA       0.320500
     22 H6         -30.5440   -14.5280   -37.8460 h1         1 LXA       0.031367
     23 H7         -28.8860   -14.8610   -37.3160 h1         1 LXA       0.031367
     24 H8         -30.2410   -15.7450   -36.5920 h1         1 LXA       0.031367
     25 H9         -29.5680   -14.9140   -34.4070 h1         1 LXA       0.035700
     26 H10        -28.2510   -13.9860   -35.1180 h1         1 LXA       0.035700
     27 H11        -29.9300   -11.7230   -31.4640 h1         1 LXA       0.062700
     28 H12        -28.3340   -12.1970   -30.9300 h1         1 LXA       0.062700
     29 H13        -25.9070    -8.7610   -34.9410 ha         1 LXA       0.127000
@<TRIPOS>BOND
     1     1     2 1   
     2     1     3 1   
     3     1    17 1   
     4     2    13 1   
     5     2    15 2   
     6     3     4 ar  
     7     3     7 ar  
     8     4     5 ar  
     9     4    18 1   
    10     5     6 ar  
    11     5    19 1   
    12     6    14 ar  
    13     6    20 1   
    14     7    14 ar  
    15     7    15 1   
    16     8    12 1   
    17     8    13 1   
    18     8    21 1   
    19     9    10 1   
    20     9    22 1   
    21     9    23 1   
    22     9    24 1   
    23    10    11 1   
    24    11    12 1   
    25    11    25 1   
    26    11    26 1   
    27    12    16 2   
    28    13    27 1   
    29    13    28 1   
    30    14    29 1   
@<TRIPOS>SUBSTRUCTURE
     1 LXA         1 TEMP              0 ****  ****    0 ROOT
