@<TRIPOS>MOLECULE
LXA
   29    30     1     0     0
SMALL
No Charge or Current Charge


@<TRIPOS>ATOM
      1 N1         -28.6090    -9.7680   -32.7410 na         1 LXA      -0.311600
      2 C4         -27.6920   -10.6650   -32.1980 cc         1 LXA       0.391800
      3 C5         -27.9670    -8.5800   -32.8940 ca         1 LXA      -0.075200
      4 C6         -28.4310    -7.3590   -33.3950 ca         1 LXA      -0.115000
      5 C7         -27.5180    -6.2830   -33.4320 ca         1 LXA      -0.093000
      6 C8         -26.1900    -6.4600   -32.9740 ca         1 LXA      -0.135000
      7 C10        -26.6900    -8.7660   -32.4490 ca         1 LXA       0.072400
      8 N          -28.3240   -12.9470   -33.0510 ns         1 LXA      -0.501900
      9 C          -30.9720   -14.6900   -36.7830 c3         1 LXA       0.141900
     10 O          -30.8540   -13.7920   -35.6670 os         1 LXA      -0.414000
     11 C1         -29.5980   -13.8830   -34.9500 c3         1 LXA       0.077600
     12 C2         -29.5110   -12.8980   -33.7550 c          1 LXA       0.606100
     13 C3         -28.0140   -12.1090   -31.8760 c3         1 LXA       0.098700
     14 C9         -25.7640    -7.7120   -32.4760 ca         1 LXA      -0.047000
     15 N2         -26.4930   -10.0720   -32.0060 nd         1 LXA      -0.572100
     16 O1         -30.4080   -12.1230   -33.4410 o          1 LXA      -0.557100
     17 H1         -29.5650    -9.9900   -32.9930 hn         1 LXA       0.355000
     18 H2         -29.4550    -7.2410   -33.7430 ha         1 LXA       0.116000
     19 H3         -27.8370    -5.3160   -33.8140 ha         1 LXA       0.112000
     20 H4         -25.4910    -5.6270   -33.0060 ha         1 LXA       0.113000
     21 H5         -27.6260   -13.6080   -33.3740 hn         1 LXA       0.320500
     22 H6         -31.9450   -14.5620   -37.2740 h1         1 LXA       0.031367
     23 H7         -30.1870   -14.4940   -37.5250 h1         1 LXA       0.031367
     24 H8         -30.8880   -15.7340   -36.4540 h1         1 LXA       0.031367
     25 H9         -29.4550   -14.8970   -34.5540 h1         1 LXA       0.035700
     26 H10        -28.7570   -13.6640   -35.6200 h1         1 LXA       0.035700
     27 H11        -28.8680   -12.1340   -31.1870 h1         1 LXA       0.062700
     28 H12        -27.1580   -12.5530   -31.3520 h1         1 LXA       0.062700
     29 H13        -24.7460    -7.8580   -32.1220 ha         1 LXA       0.127000
@<TRIPOS>BOND
     1     1     2 1   
     2     1     3 1   
     3     1    17 1   
     4     2    13 1   
     5     2    15 2   
     6     3     4 ar  
     7     3     7 ar  
     8     4     5 ar  
     9     4    18 1   
    10     5     6 ar  
    11     5    19 1   
    12     6    14 ar  
    13     6    20 1   
    14     7    14 ar  
    15     7    15 1   
    16     8    12 1   
    17     8    13 1   
    18     8    21 1   
    19     9    10 1   
    20     9    22 1   
    21     9    23 1   
    22     9    24 1   
    23    10    11 1   
    24    11    12 1   
    25    11    25 1   
    26    11    26 1   
    27    12    16 2   
    28    13    27 1   
    29    13    28 1   
    30    14    29 1   
@<TRIPOS>SUBSTRUCTURE
     1 LXA         1 TEMP              0 ****  ****    0 ROOT
