@<TRIPOS>MOLECULE
LXB
   30    30     1     0     0
SMALL
bcc


@<TRIPOS>ATOM
      1 O1          43.3180   -58.6110   -29.6370 oh         1 LXB      -0.551800
      2 C1          42.3510   -59.5140   -30.0120 c6         1 LXB       0.341900
      3 C2          41.3490   -59.6710   -28.8640 c6         1 LXB       0.052700
      4 C3          40.1570   -60.5430   -29.2900 c6         1 LXB       0.092100
      5 C4          39.5630   -60.0180   -30.6090 c6         1 LXB       0.096100
      6 C5          40.6750   -59.8680   -31.6410 c6         1 LXB       0.121100
      7 C6          40.2560   -59.3650   -33.0170 c3         1 LXB       0.162400
      8 C8          43.0000   -60.2730   -25.5080 c3         1 LXB      -0.180100
      9 N2          41.9790   -60.2140   -27.6910 ns         1 LXB      -0.569900
     10 O3          40.4740   -61.9160   -29.3440 oh         1 LXB      -0.594800
     11 O4          38.9470   -58.7710   -30.4020 oh         1 LXB      -0.557800
     12 O5          41.6920   -59.0180   -31.1550 os         1 LXB      -0.436600
     13 O6          39.8240   -58.0320   -33.0710 oh         1 LXB      -0.576800
     14 O7          42.0920   -58.2960   -26.4920 o          1 LXB      -0.590100
     15 HO1         44.0920   -58.7170   -30.2000 ho         1 LXB       0.416000
     16 H1          42.7970   -60.4960   -30.2560 h2         1 LXB      -0.000300
     17 H2          40.9680   -58.6780   -28.6190 h1         1 LXB       0.125700
     18 H3          39.3920   -60.4650   -28.5090 h1         1 LXB       0.088700
     19 H4          38.8490   -60.7650   -30.9840 h1         1 LXB       0.051700
     20 H5          41.0770   -60.8780   -31.8280 h1         1 LXB       0.024700
     21 H61         41.0990   -59.5390   -33.7000 h1         1 LXB       0.043200
     22 H62         39.4330   -59.9890   -33.3700 h1         1 LXB       0.043200
     23 H81         43.1340   -61.3280   -25.7370 hc         1 LXB       0.060033
     24 H82         43.9800   -59.8370   -25.3120 hc         1 LXB       0.060033
     25 H83         42.4210   -60.1890   -24.5880 hc         1 LXB       0.060033
     26 HN2         42.1840   -61.2010   -27.6940 hn         1 LXB       0.315500
     27 HO3         41.0990   -62.1020   -30.0530 ho         1 LXB       0.401000
     28 HO4         38.2480   -58.8870   -29.7510 ho         1 LXB       0.406000
     29 HO6         40.5200   -57.4760   -32.7080 ho         1 LXB       0.422000
     30 C7          42.3180   -59.4920   -26.6050 c          1 LXB       0.676100
@<TRIPOS>BOND
     1     1     2 1   
     2     1    15 1   
     3     2     3 1   
     4     2    12 1   
     5     2    16 1   
     6     3     4 1   
     7     3     9 1   
     8     3    17 1   
     9     4     5 1   
    10     4    10 1   
    11     4    18 1   
    12     5     6 1   
    13     5    11 1   
    14     5    19 1   
    15     6     7 1   
    16     6    12 1   
    17     6    20 1   
    18     7    13 1   
    19     7    21 1   
    20     7    22 1   
    21     8    23 1   
    22     8    24 1   
    23     8    25 1   
    24     8    30 1   
    25     9    26 1   
    26     9    30 1   
    27    10    27 1   
    28    11    28 1   
    29    13    29 1   
    30    14    30 2   
@<TRIPOS>SUBSTRUCTURE
     1 LXB         1 TEMP              0 ****  ****    0 ROOT
