@<TRIPOS>MOLECULE
LXB
   30    30     1     0     0
SMALL
No Charge or Current Charge


@<TRIPOS>ATOM
      1 O1          43.5210   -58.7870   -29.7660 oh         1 LXB      -0.614000
      2 C1          42.4430   -59.6630   -30.0090 c6         1 LXB       0.388300
      3 C2          41.3910   -59.6390   -28.8470 c6         1 LXB       0.052700
      4 C3          40.1170   -60.4370   -29.2770 c6         1 LXB       0.115300
      5 C4          39.5900   -59.9320   -30.6620 c6         1 LXB       0.119300
      6 C5          40.7590   -59.9840   -31.7050 c6         1 LXB       0.144300
      7 C6          40.3330   -59.4370   -33.1070 c3         1 LXB       0.185600
      8 C8          43.0590   -60.2960   -25.4130 c3         1 LXB      -0.180100
      9 N2          41.9310   -60.1860   -27.5760 ns         1 LXB      -0.502900
     10 O3          40.3740   -61.8600   -29.2910 oh         1 LXB      -0.657000
     11 O4          39.0890   -58.5780   -30.5310 oh         1 LXB      -0.680000
     12 O5          41.8690   -59.1830   -31.2280 os         1 LXB      -0.483000
     13 O6          39.9560   -58.0520   -33.0480 oh         1 LXB      -0.699000
     14 O7          42.6570   -58.2470   -26.6190 o          1 LXB      -0.590100
     15 HO1         43.5140   -58.2140   -30.5600 ho         1 LXB       0.455000
     16 H1          42.8240   -60.6830   -30.1590 h2         1 LXB      -0.000300
     17 H2          41.1010   -58.5910   -28.6850 h1         1 LXB       0.125700
     18 H3          39.3360   -60.2330   -28.5290 h1         1 LXB       0.088700
     19 H4          38.7830   -60.5980   -31.0010 h1         1 LXB       0.051700
     20 H5          41.0990   -61.0210   -31.8370 h1         1 LXB       0.024700
     21 H61         41.1680   -59.5770   -33.8070 h1         1 LXB       0.043200
     22 H62         39.4940   -60.0450   -33.4720 h1         1 LXB       0.043200
     23 H81         43.7400   -61.0640   -25.7950 hc         1 LXB       0.060033
     24 H82         43.5310   -59.6860   -24.6350 hc         1 LXB       0.060033
     25 H83         42.2330   -60.8950   -25.0120 hc         1 LXB       0.060033
     26 HN2         41.8650   -61.1870   -27.4300 hn         1 LXB       0.315500
     27 HO3         41.0400   -62.0440   -29.9880 ho         1 LXB       0.440000
     28 HO4         38.2750   -58.6170   -29.9730 ho         1 LXB       0.505000
     29 HO6         39.6480   -57.9480   -32.1050 ho         1 LXB       0.521000
     30 C7          42.5460   -59.4630   -26.5800 c          1 LXB       0.609100
@<TRIPOS>BOND
     1     1     2 1   
     2     1    15 1   
     3     2     3 1   
     4     2    12 1   
     5     2    16 1   
     6     3     4 1   
     7     3     9 1   
     8     3    17 1   
     9     4     5 1   
    10     4    10 1   
    11     4    18 1   
    12     5     6 1   
    13     5    11 1   
    14     5    19 1   
    15     6     7 1   
    16     6    12 1   
    17     6    20 1   
    18     7    13 1   
    19     7    21 1   
    20     7    22 1   
    21     8    23 1   
    22     8    24 1   
    23     8    25 1   
    24     8    30 1   
    25     9    26 1   
    26     9    30 1   
    27    10    27 1   
    28    11    28 1   
    29    13    29 1   
    30    14    30 2   
@<TRIPOS>SUBSTRUCTURE
     1 LXB         1 TEMP              0 ****  ****    0 ROOT
