@<TRIPOS>MOLECULE
LXC
   20    20     1     0     0
SMALL
bcc


@<TRIPOS>ATOM
      1 C5           1.7640    -0.2110     0.6050 c6         1 LXC       0.112400
      2 O5           1.6740     0.2680    -0.7180 os         1 LXC      -0.428600
      3 C1           0.5420    -0.2370    -1.3850 c6         1 LXC       0.304900
      4 O1           0.5360     0.2540    -2.6740 oh         1 LXC      -0.582800
      5 C2          -0.7430     0.2320    -0.6960 c6         1 LXC       0.131100
      6 O2          -1.8740    -0.3290    -1.3090 oh         1 LXC      -0.577800
      7 C3          -0.7280    -0.2000     0.7610 c6         1 LXC       0.158100
      8 O3          -1.8610     0.3380     1.3970 oh         1 LXC      -0.577800
      9 C4           0.5660     0.2570     1.4250 c6         1 LXC       0.067100
     10 O4           0.5860    -0.2880     2.7240 oh         1 LXC      -0.598800
     11 H5C1         2.6930     0.1770     1.0260 h1         1 LXC       0.055200
     12 H5C2         1.8230    -1.3090     0.6280 h1         1 LXC       0.055200
     13 H1           0.5740    -1.3410    -1.3700 h2         1 LXC       0.029700
     14 HA           1.1320    -0.2660    -3.2230 ho         1 LXC       0.424000
     15 H2          -0.7650     1.3330    -0.7380 h1         1 LXC       0.066700
     16 HB          -1.8990    -0.0280    -2.2230 ho         1 LXC       0.418000
     17 H3          -0.7500    -1.3030     0.7920 h1         1 LXC       0.051700
     18 HC          -1.8230     0.0860     2.3260 ho         1 LXC       0.418000
     19 H4           0.5700     1.3550     1.4560 h1         1 LXC       0.058700
     20 HD           1.2350     0.1870     3.2510 ho         1 LXC       0.413000
@<TRIPOS>BOND
     1     1     2 1   
     2     1     9 1   
     3     1    11 1   
     4     1    12 1   
     5     2     3 1   
     6     3     4 1   
     7     3     5 1   
     8     3    13 1   
     9     4    14 1   
    10     5     6 1   
    11     5     7 1   
    12     5    15 1   
    13     6    16 1   
    14     7     8 1   
    15     7     9 1   
    16     7    17 1   
    17     8    18 1   
    18     9    10 1   
    19     9    19 1   
    20    10    20 1   
@<TRIPOS>SUBSTRUCTURE
     1 LXC         1 TEMP              0 ****  ****    0 ROOT
