@<TRIPOS>MOLECULE
LXC
   20    20     1     0     0
SMALL
No Charge or Current Charge


@<TRIPOS>ATOM
      1 C5           1.7400    -0.2980     0.5920 c6         1 LXC       0.135600
      2 O5           1.6250     0.1320    -0.7850 os         1 LXC      -0.475000
      3 C1           0.4490    -0.3520    -1.4370 c6         1 LXC       0.351300
      4 O1           0.5510     0.1200    -2.7650 oh         1 LXC      -0.705000
      5 C2          -0.8410     0.2000    -0.7370 c6         1 LXC       0.154300
      6 O2          -2.0340    -0.2770    -1.4100 oh         1 LXC      -0.700000
      7 C3          -0.8000    -0.2140     0.7720 c6         1 LXC       0.181300
      8 O3          -1.8930     0.3380     1.5310 oh         1 LXC      -0.700000
      9 C4           0.5410     0.2480     1.4220 c6         1 LXC       0.090300
     10 O4           0.5980    -0.1840     2.8000 oh         1 LXC      -0.721000
     11 H5C1         2.6860     0.0840     1.0010 h1         1 LXC       0.055200
     12 H5C2         1.7670    -1.3970     0.6300 h1         1 LXC       0.055200
     13 H1           0.4480    -1.4530    -1.4270 h2         1 LXC       0.029700
     14 HA           1.4980     0.3770    -2.8360 ho         1 LXC       0.523000
     15 H2          -0.8010     1.2990    -0.7870 h1         1 LXC       0.066700
     16 HB          -1.8550    -0.1590    -2.3730 ho         1 LXC       0.517000
     17 H3          -0.8360    -1.3140     0.8200 h1         1 LXC       0.051700
     18 HC          -1.5850     0.2710     2.4670 ho         1 LXC       0.517000
     19 H4           0.5810     1.3470     1.3760 h1         1 LXC       0.058700
     20 HD           1.4130     0.2050     3.2010 ho         1 LXC       0.512000
@<TRIPOS>BOND
     1     1     2 1   
     2     1     9 1   
     3     1    11 1   
     4     1    12 1   
     5     2     3 1   
     6     3     4 1   
     7     3     5 1   
     8     3    13 1   
     9     4    14 1   
    10     5     6 1   
    11     5     7 1   
    12     5    15 1   
    13     6    16 1   
    14     7     8 1   
    15     7     9 1   
    16     7    17 1   
    17     8    18 1   
    18     9    10 1   
    19     9    19 1   
    20    10    20 1   
@<TRIPOS>SUBSTRUCTURE
     1 LXC         1 TEMP              0 ****  ****    0 ROOT
