@<TRIPOS>MOLECULE
LXD
   79    84     1     0     0
SMALL
No Charge or Current Charge


@<TRIPOS>ATOM
      1 C4          11.6100   -10.5730    20.8850 ca         1 LXD      -0.310000
      2 C5          12.7780   -10.8530    20.1840 ca         1 LXD       0.401000
      3 C6          13.9860   -10.3740    20.6910 ca         1 LXD      -0.248000
      4 C8          15.3000    -9.1060    22.4330 cc         1 LXD       0.498000
      5 C13         18.8690    -8.6350    22.3660 c6         1 LXD      -0.004000
      6 C15         20.6080    -6.8290    21.7010 c6         1 LXD      -0.069400
      7 C17         20.6410    -7.8080    24.0170 cc         1 LXD      -0.201300
      8 C20         20.3020    -9.5680    25.7760 cc         1 LXD       0.265000
      9 C22         18.5340   -10.8060    24.6240 ch         1 LXD       0.351000
     10 C26         11.7050   -12.6670    18.7660 c6         1 LXD       0.215300
     11 C1          14.0030    -9.6260    21.8820 ca         1 LXD       0.380000
     12 C12         17.3590    -8.7390    22.5910 cd         1 LXD       0.483300
     13 C14         21.0790    -6.6460    23.1590 c6         1 LXD       0.000900
     14 C16         19.1230    -7.2570    21.6670 c6         1 LXD      -0.071400
     15 C18         19.6490    -8.7110    23.6920 cd         1 LXD      -0.025300
     16 C19         19.4620    -9.7300    24.6970 cd         1 LXD      -0.159000
     17 C25         19.3780    -9.7910    21.4400 c3         1 LXD      -0.077100
     18 C27         12.1420   -13.7480    17.7350 c6         1 LXD       0.090000
     19 C29         13.2600   -11.8510    16.5040 c6         1 LXD       0.090000
     20 C3          11.6890    -9.8270    22.0600 ca         1 LXD       0.646900
     21 C30         13.7750   -11.4700    17.9240 c6         1 LXD       0.215300
     22 C32          9.2610   -10.2270    22.6440 c6         1 LXD       0.215800
     23 C33          8.3260   -10.1520    23.8930 c6         1 LXD       0.154800
     24 C35          9.4320    -8.1230    24.6630 c6         1 LXD       0.153800
     25 C36         10.4130    -8.1330    23.4380 c6         1 LXD       0.230500
     26 C37          7.1830    -8.6870    25.5240 c3         1 LXD       0.151100
     27 C38          9.9820    -7.1150    22.3450 c3         1 LXD      -0.110100
     28 C40         12.7760   -13.2220    13.9260 ce         1 LXD      -0.297200
     29 C42         13.0510   -13.9020    12.7850 c2         1 LXD      -0.234000
     30 N10         15.3820    -8.4020    23.5550 nd         1 LXD      -0.329300
     31 N2          12.8460    -9.3650    22.5480 nb         1 LXD      -0.748000
     32 N23         17.7520   -11.6700    24.5550 n1         1 LXD      -0.472000
     33 N24         20.3710   -10.3680    26.8950 nv         1 LXD      -1.071000
     34 N28         12.5790   -13.1800    16.4250 n          1 LXD      -0.414800
     35 N31         10.5590    -9.5000    22.8290 nh         1 LXD      -0.767300
     36 N34          8.1110    -8.7570    24.3750 n3         1 LXD      -0.710600
     37 N7          12.7330   -11.6030    18.9880 nh         1 LXD      -0.834400
     38 N9          16.4940    -9.3330    21.7920 nc         1 LXD      -0.715000
     39 O11         16.7640    -8.1430    23.6640 os         1 LXD      -0.085700
     40 O41         11.9250   -15.0150    15.2190 o          1 LXD      -0.603100
     41 S21         21.3500    -8.1620    25.5810 ss         1 LXD       0.155000
     42 H1          10.6530   -10.9060    20.5070 ha         1 LXD       0.120000
     43 H2          14.9140   -10.5880    20.1750 ha         1 LXD       0.143000
     44 H3          21.2350    -7.5750    21.1950 hc         1 LXD       0.048200
     45 H4          20.7410    -5.8890    21.1490 hc         1 LXD       0.048200
     46 H5          10.7720   -12.2060    18.4090 h1         1 LXD       0.054700
     47 H6          11.4740   -13.1740    19.7150 h1         1 LXD       0.054700
     48 H7          22.1710    -6.5300    23.1810 hc         1 LXD       0.054700
     49 H8          20.6640    -5.7110    23.5600 hc         1 LXD       0.054700
     50 H9          18.7660    -7.2870    20.6280 hc         1 LXD       0.058200
     51 H10         18.5290    -6.4760    22.1620 hc         1 LXD       0.058200
     52 H11         19.1060   -10.7770    21.8340 hc         1 LXD       0.051700
     53 H12         18.9530    -9.7180    20.4320 hc         1 LXD       0.051700
     54 H13         20.4690    -9.7770    21.3380 hc         1 LXD       0.051700
     55 H14         11.3000   -14.4380    17.5850 h1         1 LXD       0.059200
     56 H15         12.9700   -14.3330    18.1590 h1         1 LXD       0.059200
     57 H16         14.1200   -11.8360    15.8210 h1         1 LXD       0.059200
     58 H17         12.5550   -11.0780    16.1680 h1         1 LXD       0.059200
     59 H18         14.6330   -12.1130    18.1690 h1         1 LXD       0.054700
     60 H19         14.1470   -10.4350    17.8830 h1         1 LXD       0.054700
     61 H20          8.7260    -9.8130    21.7770 h1         1 LXD       0.041700
     62 H21          9.4490   -11.2900    22.4340 h1         1 LXD       0.041700
     63 H22          7.3640   -10.6190    23.6360 h1         1 LXD       0.038200
     64 H23          8.7710   -10.7610    24.6950 h1         1 LXD       0.038200
     65 H24          9.9220    -8.6510    25.4950 h1         1 LXD       0.042200
     66 H25          9.2920    -7.0830    24.9930 h1         1 LXD       0.042200
     67 H26         11.3800    -7.7840    23.8310 h1         1 LXD       0.095700
     68 H27          7.0150    -7.6440    25.8230 h1         1 LXD       0.031033
     69 H28          6.2100    -9.1240    25.2620 h1         1 LXD       0.031033
     70 H29          7.5850    -9.2340    26.3880 h1         1 LXD       0.031033
     71 H30          9.9180    -6.1020    22.7590 hc         1 LXD       0.041033
     72 H31         10.7050    -7.0890    21.5220 hc         1 LXD       0.041033
     73 H32          9.0010    -7.3640    21.9240 hc         1 LXD       0.041033
     74 H33         12.9150   -12.1440    13.9460 ha         1 LXD       0.179000
     75 H34         13.3760   -13.3910    11.8770 ha         1 LXD       0.175500
     76 H35         12.9600   -14.9880    12.7230 ha         1 LXD       0.175500
     77 H36         20.9390   -10.0820    27.6930 hn         1 LXD       0.486000
     78 H37         19.6690   -11.0890    27.0570 hn         1 LXD       0.486000
     79 C39         12.3700   -13.8750    15.2140 c          1 LXD       0.605300
@<TRIPOS>BOND
     1     1     2 ar  
     2     1    20 ar  
     3     1    42 1   
     4     2     3 ar  
     5     2    37 1   
     6     3    11 ar  
     7     3    43 1   
     8     4    11 1   
     9     4    30 2   
    10     4    38 1   
    11     5    12 1   
    12     5    14 1   
    13     5    15 1   
    14     5    17 1   
    15     6    13 1   
    16     6    14 1   
    17     6    44 1   
    18     6    45 1   
    19     7    13 1   
    20     7    15 2   
    21     7    41 1   
    22     8    16 2   
    23     8    33 1   
    24     8    41 1   
    25     9    16 1   
    26     9    32 3   
    27    10    18 1   
    28    10    37 1   
    29    10    46 1   
    30    10    47 1   
    31    11    31 ar  
    32    12    38 2   
    33    12    39 1   
    34    13    48 1   
    35    13    49 1   
    36    14    50 1   
    37    14    51 1   
    38    15    16 1   
    39    17    52 1   
    40    17    53 1   
    41    17    54 1   
    42    18    34 1   
    43    18    55 1   
    44    18    56 1   
    45    19    21 1   
    46    19    34 1   
    47    19    57 1   
    48    19    58 1   
    49    20    31 ar  
    50    20    35 1   
    51    21    37 1   
    52    21    59 1   
    53    21    60 1   
    54    22    23 1   
    55    22    35 1   
    56    22    61 1   
    57    22    62 1   
    58    23    36 1   
    59    23    63 1   
    60    23    64 1   
    61    24    25 1   
    62    24    36 1   
    63    24    65 1   
    64    24    66 1   
    65    25    27 1   
    66    25    35 1   
    67    25    67 1   
    68    26    36 1   
    69    26    68 1   
    70    26    69 1   
    71    26    70 1   
    72    27    71 1   
    73    27    72 1   
    74    27    73 1   
    75    28    29 2   
    76    28    74 1   
    77    28    79 1   
    78    29    75 1   
    79    29    76 1   
    80    30    39 1   
    81    33    77 1   
    82    33    78 1   
    83    34    79 1   
    84    40    79 2   
@<TRIPOS>SUBSTRUCTURE
     1 LXD         1 TEMP              0 ****  ****    0 ROOT
