@<TRIPOS>MOLECULE
LXD
   79    84     1     0     0
SMALL
abcg2


@<TRIPOS>ATOM
      1 C4          11.5680   -10.5470    20.8700 ca         1 LXD      -0.310000
      2 C5          12.7070   -10.8870    20.1320 ca         1 LXD       0.401000
      3 C6          13.9530   -10.4490    20.6280 ca         1 LXD      -0.248000
      4 C8          15.2470    -9.2700    22.3440 cc         1 LXD       0.498000
      5 C13         18.7120    -8.4810    22.2320 c6         1 LXD      -0.004000
      6 C15         20.1830    -6.4090    21.9730 c6         1 LXD      -0.069400
      7 C17         20.3760    -7.8110    23.9830 cc         1 LXD      -0.201300
      8 C20         20.3240    -9.9060    25.3600 cc         1 LXD       0.265000
      9 C22         18.6510   -11.0430    23.9920 ch         1 LXD       0.351000
     10 C26         11.4010   -12.2540    18.5680 c6         1 LXD       0.215300
     11 C1          13.9600    -9.7350    21.8060 ca         1 LXD       0.380000
     12 C12         17.2660    -8.8010    22.4570 cd         1 LXD       0.483300
     13 C14         20.6740    -6.4620    23.4160 c6         1 LXD       0.000900
     14 C16         18.7770    -6.9790    21.8550 c6         1 LXD      -0.071400
     15 C18         19.5050    -8.7180    23.4950 cd         1 LXD      -0.025300
     16 C19         19.4690    -9.9330    24.2720 cd         1 LXD      -0.159000
     17 C25         19.2520    -9.3510    21.0910 c3         1 LXD      -0.077100
     18 C27         11.7020   -13.4960    17.7500 c6         1 LXD       0.090000
     19 C29         13.2750   -11.9440    16.6520 c6         1 LXD       0.090000
     20 C3          11.6990    -9.8360    22.0730 ca         1 LXD       0.646900
     21 C30         13.7520   -11.7020    18.0730 c6         1 LXD       0.215300
     22 C32          9.2770    -9.8600    22.3910 c6         1 LXD       0.215800
     23 C33          8.2810    -9.8590    23.5350 c6         1 LXD       0.154800
     24 C35          9.6490    -8.4430    24.8170 c6         1 LXD       0.153800
     25 C36         10.6930    -8.3430    23.7150 c6         1 LXD       0.230500
     26 C37          7.3060    -8.5690    25.2970 c3         1 LXD       0.151100
     27 C38         10.5630    -7.0450    22.9200 c3         1 LXD      -0.110100
     28 C40         13.2840   -13.6660    14.3330 ce         1 LXD      -0.297200
     29 C42         13.6710   -14.5710    13.4420 c2         1 LXD      -0.234000
     30 N10         15.3830    -8.7860    23.5420 nd         1 LXD      -0.329300
     31 N2          12.8860    -9.4300    22.5250 nb         1 LXD      -0.748000
     32 N23         17.9790   -11.9570    23.7690 n1         1 LXD      -0.472000
     33 N24         20.5650   -10.8770    26.2590 nv         1 LXD      -1.071000
     34 N28         12.4950   -13.1690    16.5760 n          1 LXD      -0.414800
     35 N31         10.6100    -9.5220    22.8500 nh         1 LXD      -0.767300
     36 N34          8.3210    -8.6150    24.2700 n3         1 LXD      -0.710600
     37 N7          12.6250   -11.5970    18.9800 nh         1 LXD      -0.834400
     38 N9          16.4120    -9.3020    21.6320 nc         1 LXD      -0.715000
     39 O11         16.7120    -8.4770    23.6190 os         1 LXD      -0.085700
     40 O41         12.0240   -15.1680    15.6630 o          1 LXD      -0.603100
     41 S21         21.1740    -8.4020    25.4150 ss         1 LXD       0.155000
     42 H1          10.5910   -10.7860    20.4840 ha         1 LXD       0.120000
     43 H2          14.8840   -10.6730    20.1310 ha         1 LXD       0.143000
     44 H3          20.8750    -6.9530    21.3260 hc         1 LXD       0.048200
     45 H4          20.1800    -5.3750    21.6240 hc         1 LXD       0.048200
     46 H5          10.7440   -11.5780    18.0090 h1         1 LXD       0.054700
     47 H6          10.8450   -12.5820    19.4480 h1         1 LXD       0.054700
     48 H7          21.7450    -6.2520    23.4590 hc         1 LXD       0.054700
     49 H8          20.1820    -5.6860    24.0110 hc         1 LXD       0.054700
     50 H9          18.3960    -6.8610    20.8390 hc         1 LXD       0.058200
     51 H10         18.1160    -6.4050    22.5110 hc         1 LXD       0.058200
     52 H11         19.1840   -10.4140    21.3220 hc         1 LXD       0.051700
     53 H12         18.6980    -9.1690    20.1710 hc         1 LXD       0.051700
     54 H13         20.2990    -9.1150    20.9130 hc         1 LXD       0.051700
     55 H14         10.7560   -13.9420    17.4440 h1         1 LXD       0.059200
     56 H15         12.2180   -14.2310    18.3760 h1         1 LXD       0.059200
     57 H16         14.1620   -12.0150    16.0280 h1         1 LXD       0.059200
     58 H17         12.6950   -11.0830    16.3050 h1         1 LXD       0.059200
     59 H18         14.4420   -12.4990    18.3720 h1         1 LXD       0.054700
     60 H19         14.3150   -10.7680    18.0690 h1         1 LXD       0.054700
     61 H20          8.9360    -9.1810    21.5980 h1         1 LXD       0.041700
     62 H21          9.2820   -10.8650    21.9710 h1         1 LXD       0.041700
     63 H22          7.2820   -10.0060    23.1160 h1         1 LXD       0.038200
     64 H23          8.4850   -10.7210    24.1940 h1         1 LXD       0.038200
     65 H24          9.9130    -9.2720    25.4980 h1         1 LXD       0.042200
     66 H25          9.6820    -7.5240    25.4070 h1         1 LXD       0.042200
     67 H26         11.6690    -8.3600    24.1970 h1         1 LXD       0.095700
     68 H27          7.3450    -7.6100    25.8160 h1         1 LXD       0.031033
     69 H28          6.3160    -8.6680    24.8500 h1         1 LXD       0.031033
     70 H29          7.4170    -9.3640    26.0500 h1         1 LXD       0.031033
     71 H30         10.6620    -6.1850    23.5830 hc         1 LXD       0.041033
     72 H31         11.3460    -6.9710    22.1640 hc         1 LXD       0.041033
     73 H32          9.5980    -6.9710    22.4210 hc         1 LXD       0.041033
     74 H33         13.4770   -12.6170    14.1450 ha         1 LXD       0.179000
     75 H34         14.1810   -14.2770    12.5350 ha         1 LXD       0.175500
     76 H35         13.4990   -15.6300    13.5860 ha         1 LXD       0.175500
     77 H36         21.0260   -10.6510    27.1250 hn         1 LXD       0.486000
     78 H37         19.9190   -11.6490    26.3170 hn         1 LXD       0.486000
     79 C39         12.5600   -14.0700    15.5710 c          1 LXD       0.605300
@<TRIPOS>BOND
     1     1     2 ar  
     2     1    20 ar  
     3     1    42 1   
     4     2     3 ar  
     5     2    37 1   
     6     3    11 ar  
     7     3    43 1   
     8     4    11 1   
     9     4    30 2   
    10     4    38 1   
    11     5    12 1   
    12     5    14 1   
    13     5    15 1   
    14     5    17 1   
    15     6    13 1   
    16     6    14 1   
    17     6    44 1   
    18     6    45 1   
    19     7    13 1   
    20     7    15 2   
    21     7    41 1   
    22     8    16 2   
    23     8    33 1   
    24     8    41 1   
    25     9    16 1   
    26     9    32 3   
    27    10    18 1   
    28    10    37 1   
    29    10    46 1   
    30    10    47 1   
    31    11    31 ar  
    32    12    38 2   
    33    12    39 1   
    34    13    48 1   
    35    13    49 1   
    36    14    50 1   
    37    14    51 1   
    38    15    16 1   
    39    17    52 1   
    40    17    53 1   
    41    17    54 1   
    42    18    34 1   
    43    18    55 1   
    44    18    56 1   
    45    19    21 1   
    46    19    34 1   
    47    19    57 1   
    48    19    58 1   
    49    20    31 ar  
    50    20    35 1   
    51    21    37 1   
    52    21    59 1   
    53    21    60 1   
    54    22    23 1   
    55    22    35 1   
    56    22    61 1   
    57    22    62 1   
    58    23    36 1   
    59    23    63 1   
    60    23    64 1   
    61    24    25 1   
    62    24    36 1   
    63    24    65 1   
    64    24    66 1   
    65    25    27 1   
    66    25    35 1   
    67    25    67 1   
    68    26    36 1   
    69    26    68 1   
    70    26    69 1   
    71    26    70 1   
    72    27    71 1   
    73    27    72 1   
    74    27    73 1   
    75    28    29 2   
    76    28    74 1   
    77    28    79 1   
    78    29    75 1   
    79    29    76 1   
    80    30    39 1   
    81    33    77 1   
    82    33    78 1   
    83    34    79 1   
    84    40    79 2   
@<TRIPOS>SUBSTRUCTURE
     1 LXD         1 TEMP              0 ****  ****    0 ROOT
