@<TRIPOS>MOLECULE
LXE
   24    24     1     0     0
SMALL
No Charge or Current Charge


@<TRIPOS>ATOM
      1 C1           1.5880     0.8100     0.5610 c5         1 LXE      -0.142400
      2 C2           1.6610    -0.6490     0.0390 c5         1 LXE       0.135300
      3 O2           2.1140    -0.6680    -1.3220 oh         1 LXE      -0.650000
      4 C3           0.1590    -1.1270     0.1740 c5         1 LXE       0.186300
      5 O3          -0.0550    -1.8380     1.4040 oh         1 LXE      -0.662000
      6 C4          -0.6840     0.2060     0.1730 c5         1 LXE      -0.083700
      7 C5          -1.9390     0.1910    -0.7330 c3         1 LXE       0.173600
      8 O5          -2.8720    -0.8010    -0.2890 oh         1 LXE      -0.645000
      9 C6           0.3620     1.2710    -0.2420 c5         1 LXE       0.105300
     10 N1          -0.0730     2.6490     0.3260 nz         1 LXE      -0.969000
     11 H1           1.4300     0.8470     1.6460 hc         1 LXE       0.081200
     12 H7           2.4900     1.3900     0.3340 hc         1 LXE       0.081200
     13 H2           2.3280    -1.2600     0.6660 h1         1 LXE       0.079700
     14 HB           3.0800    -0.4800    -1.3100 ho         1 LXE       0.462000
     15 H3          -0.1100    -1.7570    -0.6880 h1         1 LXE       0.105700
     16 HC           0.3030    -2.7460     1.2770 ho         1 LXE       0.472000
     17 H4          -1.0460     0.4130     1.1870 hc         1 LXE       0.094700
     18 H5'1        -2.4060     1.1840    -0.7100 h1         1 LXE       0.029700
     19 H5'2        -1.6310    -0.0100    -1.7680 h1         1 LXE       0.029700
     20 H5          -3.6540    -0.7480    -0.8840 ho         1 LXE       0.472000
     21 H6           0.5390     1.3250    -1.3240 hx         1 LXE       0.110700
     22 HN1         -0.2480     2.6440     1.3420 hn         1 LXE       0.511000
     23 HN11         0.6380     3.3820     0.1770 hn         1 LXE       0.511000
     24 HN12        -0.9320     3.0200    -0.1070 hn         1 LXE       0.511000
@<TRIPOS>BOND
     1     1     2 1   
     2     1     9 1   
     3     1    11 1   
     4     1    12 1   
     5     2     3 1   
     6     2     4 1   
     7     2    13 1   
     8     3    14 1   
     9     4     5 1   
    10     4     6 1   
    11     4    15 1   
    12     5    16 1   
    13     6     7 1   
    14     6     9 1   
    15     6    17 1   
    16     7     8 1   
    17     7    18 1   
    18     7    19 1   
    19     8    20 1   
    20     9    10 1   
    21     9    21 1   
    22    10    22 1   
    23    10    23 1   
    24    10    24 1   
@<TRIPOS>SUBSTRUCTURE
     1 LXE         1 TEMP              0 ****  ****    0 ROOT
