@<TRIPOS>MOLECULE
LXE
   24    24     1     0     0
SMALL
abcg2


@<TRIPOS>ATOM
      1 C1           1.6360     0.7430     0.3570 c5         1 LXE      -0.142400
      2 C2           1.4800    -0.7120    -0.0620 c5         1 LXE       0.135300
      3 O2           1.4810    -0.8530    -1.4650 oh         1 LXE      -0.650000
      4 C3           0.0630    -1.0520     0.4150 c5         1 LXE       0.186300
      5 O3           0.0450    -1.2910     1.8040 oh         1 LXE      -0.662000
      6 C4          -0.7520     0.2280     0.1520 c5         1 LXE      -0.083700
      7 C5          -1.6960     0.1370    -1.0350 c3         1 LXE       0.173600
      8 O5          -2.6900    -0.8130    -0.7390 oh         1 LXE      -0.645000
      9 C6           0.2950     1.3400    -0.0540 c5         1 LXE       0.105300
     10 N1          -0.0310     2.5610     0.7300 nz         1 LXE      -0.969000
     11 H1           1.7650     0.7960     1.4410 hc         1 LXE       0.081200
     12 H7           2.4880     1.2470    -0.1020 hc         1 LXE       0.081200
     13 H2           2.2350    -1.3590     0.4040 h1         1 LXE       0.079700
     14 HB           2.3170    -0.5220    -1.8070 ho         1 LXE       0.462000
     15 H3          -0.3370    -1.9100    -0.1400 h1         1 LXE       0.105700
     16 HC           0.5840    -2.0680     1.9850 ho         1 LXE       0.472000
     17 H4          -1.3540     0.4390     1.0430 hc         1 LXE       0.094700
     18 H5'1        -2.1310     1.1300    -1.2180 h1         1 LXE       0.029700
     19 H5'2        -1.1280    -0.1330    -1.9330 h1         1 LXE       0.029700
     20 H5          -3.2120    -0.9620    -1.5320 ho         1 LXE       0.472000
     21 H6           0.3220     1.6690    -1.0930 hx         1 LXE       0.110700
     22 HN1         -0.0780     2.3770     1.7320 hn         1 LXE       0.511000
     23 HN11         0.6670     3.2930     0.5920 hn         1 LXE       0.511000
     24 HN12        -0.9270     2.9640     0.4560 hn         1 LXE       0.511000
@<TRIPOS>BOND
     1     1     2 1   
     2     1     9 1   
     3     1    11 1   
     4     1    12 1   
     5     2     3 1   
     6     2     4 1   
     7     2    13 1   
     8     3    14 1   
     9     4     5 1   
    10     4     6 1   
    11     4    15 1   
    12     5    16 1   
    13     6     7 1   
    14     6     9 1   
    15     6    17 1   
    16     7     8 1   
    17     7    18 1   
    18     7    19 1   
    19     8    20 1   
    20     9    10 1   
    21     9    21 1   
    22    10    22 1   
    23    10    23 1   
    24    10    24 1   
@<TRIPOS>SUBSTRUCTURE
     1 LXE         1 TEMP              0 ****  ****    0 ROOT
