@<TRIPOS>MOLECULE
LXF
   42    44     1     0     0
SMALL
abcg2


@<TRIPOS>ATOM
      1 N1           5.5980    -0.9690    23.2680 nc         1 LXF      -0.660100
      2 C4           5.2660    -0.9930    25.7240 ca         1 LXF      -0.280500
      3 C5           4.7960    -1.7020    26.8200 ca         1 LXF       0.015000
      4 C6           4.2720    -2.9870    26.6610 ca         1 LXF      -0.138000
      5 C7           4.1950    -3.5750    25.4050 ca         1 LXF      -0.008000
      6 C8           4.6520    -2.8540    24.3090 ca         1 LXF      -0.242000
      7 C10          3.3480     2.8220    23.8630 c3         1 LXF      -0.029100
      8 C13         -0.2050     3.9240    24.6670 ca         1 LXF      -0.109000
      9 C15         -0.3010     2.2230    22.9680 ca         1 LXF      -0.109000
     10 O2           7.3560     0.5810    25.5990 o          1 LXF      -0.541000
     11 S1           5.9510     0.6290    25.9330 sy         1 LXF       1.178600
     12 O1           5.5570     1.1070    27.2370 o          1 LXF      -0.541000
     13 N2           5.2450     1.5870    24.8080 n7         1 LXF      -0.850300
     14 C9           3.7790     1.7290    24.8400 c3         1 LXF       0.194800
     15 C11          1.8470     2.9490    23.8240 ca         1 LXF      -0.089300
     16 C16          1.0880     2.1420    22.9740 ca         1 LXF      -0.105000
     17 C14         -0.9520     3.1140    23.8160 ca         1 LXF      -0.108000
     18 C12          1.1840     3.8390    24.6700 ca         1 LXF      -0.105000
     19 C3           5.1980    -1.5630    24.4440 ca         1 LXF       0.199400
     20 S            4.6530    -3.3150    22.6230 ss         1 LXF       0.138800
     21 C2           5.3700    -1.7550    22.2570 cd         1 LXF       0.475800
     22 N            5.6760    -1.3690    20.9800 ns         1 LXF      -0.407400
     23 C1           5.4670    -2.1200    19.8440 c          1 LXF       0.606100
     24 O            4.9840    -3.2390    19.9120 o          1 LXF      -0.555100
     25 C            5.8730    -1.4500    18.5630 c3         1 LXF      -0.171100
     26 H1           4.8370    -1.2480    27.8000 ha         1 LXF       0.144000
     27 H2           3.9160    -3.5260    27.5290 ha         1 LXF       0.124000
     28 H3           3.7820    -4.5670    25.2850 ha         1 LXF       0.126000
     29 H4           3.7250     2.5740    22.8680 hc         1 LXF       0.057200
     30 H5           3.8030     3.7670    24.1640 hc         1 LXF       0.057200
     31 H7          -0.8740     1.5920    22.2990 ha         1 LXF       0.113500
     32 H8           5.5860     1.3110    23.8890 hn         1 LXF       0.487000
     33 H9           3.4850     1.9940    25.8550 h1         1 LXF       0.056700
     34 H10          3.2880     0.7860    24.5780 h1         1 LXF       0.056700
     35 H11          1.5910     1.4480    22.3110 ha         1 LXF       0.111500
     36 H12         -2.0330     3.1800    23.8110 ha         1 LXF       0.113000
     37 H13          1.7610     4.4730    25.3340 ha         1 LXF       0.111500
     38 H14          6.0770    -0.4440    20.8930 hn         1 LXF       0.343500
     39 H15          5.7070    -2.1310    17.7330 hc         1 LXF       0.074700
     40 H16          5.2850    -0.5410    18.4180 hc         1 LXF       0.074700
     41 H17          6.9250    -1.1620    18.6040 hc         1 LXF       0.074700
     42 H6          -0.7040     4.6230    25.3270 ha         1 LXF       0.113500
@<TRIPOS>BOND
     1     1    19 1   
     2     1    21 2   
     3     2     3 ar  
     4     2    11 1   
     5     2    19 ar  
     6     3     4 ar  
     7     3    26 1   
     8     4     5 ar  
     9     4    27 1   
    10     5     6 ar  
    11     5    28 1   
    12     6    19 ar  
    13     6    20 1   
    14     7    14 1   
    15     7    15 1   
    16     7    29 1   
    17     7    30 1   
    18     8    17 ar  
    19     8    18 ar  
    20     8    42 1   
    21     9    16 ar  
    22     9    17 ar  
    23     9    31 1   
    24    10    11 2   
    25    11    12 2   
    26    11    13 1   
    27    13    14 1   
    28    13    32 1   
    29    14    33 1   
    30    14    34 1   
    31    15    16 ar  
    32    15    18 ar  
    33    16    35 1   
    34    17    36 1   
    35    18    37 1   
    36    20    21 1   
    37    21    22 1   
    38    22    23 1   
    39    22    38 1   
    40    23    24 2   
    41    23    25 1   
    42    25    39 1   
    43    25    40 1   
    44    25    41 1   
@<TRIPOS>SUBSTRUCTURE
     1 LXF         1 TEMP              0 ****  ****    0 ROOT
