@<TRIPOS>MOLECULE
LXF
   42    44     1     0     0
SMALL
No Charge or Current Charge


@<TRIPOS>ATOM
      1 N1           5.5920    -0.9020    23.2720 nc         1 LXF      -0.660100
      2 C4           5.2510    -1.0100    25.7200 ca         1 LXF      -0.280500
      3 C5           4.7320    -1.7370    26.8170 ca         1 LXF       0.015000
      4 C6           4.1230    -2.9910    26.6150 ca         1 LXF      -0.138000
      5 C7           4.0240    -3.5240    25.3190 ca         1 LXF      -0.008000
      6 C8           4.5420    -2.7790    24.2510 ca         1 LXF      -0.242000
      7 C10          3.3380     2.4600    23.6890 c3         1 LXF      -0.029100
      8 C13         -0.0500     4.1780    24.2460 ca         1 LXF      -0.109000
      9 C15         -0.4530     1.8970    23.5020 ca         1 LXF      -0.109000
     10 O2           7.4420     0.5280    25.6460 o          1 LXF      -0.541000
     11 S1           6.0240     0.5830    26.0110 sy         1 LXF       1.178600
     12 O1           5.5900     1.1280    27.3010 o          1 LXF      -0.541000
     13 N2           5.3140     1.5160    24.8280 n7         1 LXF      -0.850300
     14 C9           3.8730     1.7790    24.9630 c3         1 LXF       0.194800
     15 C11          1.8360     2.7050    23.7630 ca         1 LXF      -0.089300
     16 C16          0.9340     1.6760    23.4290 ca         1 LXF      -0.105000
     17 C14         -0.9450     3.1480    23.9100 ca         1 LXF      -0.108000
     18 C12          1.3370     3.9570    24.1730 ca         1 LXF      -0.105000
     19 C3           5.1460    -1.5470    24.4240 ca         1 LXF       0.199400
     20 S            4.5020    -3.2640    22.5680 ss         1 LXF       0.138800
     21 C2           5.3180    -1.7060    22.2370 cd         1 LXF       0.475800
     22 N            5.6780    -1.2740    20.9880 ns         1 LXF      -0.407400
     23 C1           5.5060    -1.8890    19.7720 c          1 LXF       0.606100
     24 O            4.9700    -2.9770    19.6270 o          1 LXF      -0.555100
     25 C            6.0430    -1.0990    18.5860 c3         1 LXF      -0.171100
     26 H1           4.8020    -1.3390    27.8290 ha         1 LXF       0.144000
     27 H2           3.7280    -3.5460    27.4620 ha         1 LXF       0.124000
     28 H3           3.5530    -4.4910    25.1520 ha         1 LXF       0.126000
     29 H4           3.5690     1.8310    22.8200 hc         1 LXF       0.057200
     30 H5           3.8720     3.4050    23.5370 hc         1 LXF       0.057200
     31 H7          -1.1450     1.0990    23.2430 ha         1 LXF       0.113500
     32 H8           5.4220     0.8360    24.0660 hn         1 LXF       0.487000
     33 H9           3.6750     2.4320    25.8240 h1         1 LXF       0.056700
     34 H10          3.3140     0.8450    25.1200 h1         1 LXF       0.056700
     35 H11          1.3060     0.7030    23.1140 ha         1 LXF       0.111500
     36 H12         -2.0180     3.3190    23.9670 ha         1 LXF       0.113000
     37 H13          2.0220     4.7600    24.4370 ha         1 LXF       0.111500
     38 H14          6.1400    -0.3790    20.9420 hn         1 LXF       0.343500
     39 H15          5.8890    -1.6160    17.6330 hc         1 LXF       0.074700
     40 H16          5.5860    -0.1030    18.5830 hc         1 LXF       0.074700
     41 H17          7.1010    -0.8720    18.7570 hc         1 LXF       0.074700
     42 H6          -0.4300     5.1470    24.5630 ha         1 LXF       0.113500
@<TRIPOS>BOND
     1     1    19 1   
     2     1    21 2   
     3     2     3 ar  
     4     2    11 1   
     5     2    19 ar  
     6     3     4 ar  
     7     3    26 1   
     8     4     5 ar  
     9     4    27 1   
    10     5     6 ar  
    11     5    28 1   
    12     6    19 ar  
    13     6    20 1   
    14     7    14 1   
    15     7    15 1   
    16     7    29 1   
    17     7    30 1   
    18     8    17 ar  
    19     8    18 ar  
    20     8    42 1   
    21     9    16 ar  
    22     9    17 ar  
    23     9    31 1   
    24    10    11 2   
    25    11    12 2   
    26    11    13 1   
    27    13    14 1   
    28    13    32 1   
    29    14    33 1   
    30    14    34 1   
    31    15    16 ar  
    32    15    18 ar  
    33    16    35 1   
    34    17    36 1   
    35    18    37 1   
    36    20    21 1   
    37    21    22 1   
    38    22    23 1   
    39    22    38 1   
    40    23    24 2   
    41    23    25 1   
    42    25    39 1   
    43    25    40 1   
    44    25    41 1   
@<TRIPOS>SUBSTRUCTURE
     1 LXF         1 TEMP              0 ****  ****    0 ROOT
