@<TRIPOS>MOLECULE
LXG
   42    45     1     0     0
SMALL
No Charge or Current Charge


@<TRIPOS>ATOM
      1 C1          -4.2090    -2.9820     1.7930 c3         1 LXG       0.149600
      2 N1          -3.3810    -3.4900     0.6730 n3         1 LXG      -0.692600
      3 O1          -4.1380     1.9660     0.5810 o          1 LXG      -0.538000
      4 S1          -1.0560     2.9040     0.5550 ss         1 LXG       0.152400
      5 C2          -3.7610    -4.8630     0.2720 c3         1 LXG       0.149600
      6 N2          -1.3990    -0.9770    -0.2940 nc         1 LXG      -0.579300
      7 C3          -3.3000    -2.5540    -0.4960 c3         1 LXG       0.132500
      8 N3          -3.6290    -0.1770     0.0590 ns         1 LXG      -0.418400
      9 C4          -2.7190    -1.1660    -0.2270 cd         1 LXG       0.490900
     10 C5          -0.9890     0.3130    -0.0350 cc         1 LXG       0.218400
     11 C6           0.3870     0.7560    -0.0460 ca         1 LXG      -0.070800
     12 C7           1.5230    -0.0270    -0.3130 ca         1 LXG      -0.034000
     13 C8           2.8020     0.5720    -0.2840 ca         1 LXG      -0.061800
     14 C9           4.0010    -0.2730    -0.5670 ce         1 LXG      -0.164200
     15 C10          5.2530     0.1750    -0.8140 c2         1 LXG      -0.172200
     16 C11          6.3880    -0.7450    -1.0940 cx         1 LXG      -0.101500
     17 C12          7.6900    -0.5610    -0.3500 cx         1 LXG      -0.121400
     18 C13          6.8180    -1.7580    -0.0580 cx         1 LXG      -0.121400
     19 C14          2.9110     1.9520     0.0220 ca         1 LXG      -0.078000
     20 C15          1.7620     2.7220     0.2880 ca         1 LXG      -0.095000
     21 C16          0.5060     2.1020     0.2470 ca         1 LXG      -0.151000
     22 C17         -1.8600     1.3380     0.2650 cd         1 LXG      -0.222600
     23 C18         -3.3020     1.1140     0.3260 c          1 LXG       0.601200
     24 H1          -5.2510    -2.8380     1.4760 h1         1 LXG       0.035700
     25 H1A         -4.2020    -3.6910     2.6320 h1         1 LXG       0.035700
     26 H1B         -3.8230    -2.0250     2.1660 h1         1 LXG       0.035700
     27 H2          -4.7800    -4.8840    -0.1380 h1         1 LXG       0.035700
     28 H2A         -3.0740    -5.2500    -0.4920 h1         1 LXG       0.035700
     29 H2B         -3.7230    -5.5450     1.1330 h1         1 LXG       0.035700
     30 H3          -2.6810    -3.0120    -1.2790 h1         1 LXG       0.048200
     31 H3A         -4.2990    -2.4280    -0.9350 h1         1 LXG       0.048200
     32 HN3         -4.6140    -0.3930     0.0870 hn         1 LXG       0.326500
     33 H7           1.4110    -1.0840    -0.5420 ha         1 LXG       0.136000
     34 H9           3.8080    -1.3480    -0.5790 ha         1 LXG       0.175000
     35 H10          5.4930     1.2380    -0.8350 ha         1 LXG       0.168000
     36 H11          6.4720    -1.0370    -2.1390 hc         1 LXG       0.081700
     37 H12          8.6150    -0.7280    -0.8970 hc         1 LXG       0.072200
     38 H12A         7.7430     0.2210     0.4040 hc         1 LXG       0.072200
     39 H13          6.2860    -1.7760     0.8900 hc         1 LXG       0.072200
     40 H13A         7.1550    -2.7300    -0.4100 hc         1 LXG       0.072200
     41 H14          3.8820     2.4370     0.0670 ha         1 LXG       0.114000
     42 H15          1.8500     3.7810     0.5240 ha         1 LXG       0.123000
@<TRIPOS>BOND
     1     1     2 1   
     2     1    24 1   
     3     1    25 1   
     4     1    26 1   
     5     2     5 1   
     6     2     7 1   
     7     3    23 2   
     8     4    21 1   
     9     4    22 1   
    10     5    27 1   
    11     5    28 1   
    12     5    29 1   
    13     6     9 2   
    14     6    10 1   
    15     7     9 1   
    16     7    30 1   
    17     7    31 1   
    18     8     9 1   
    19     8    23 1   
    20     8    32 1   
    21    10    11 1   
    22    10    22 2   
    23    11    12 ar  
    24    11    21 ar  
    25    12    13 ar  
    26    12    33 1   
    27    13    14 1   
    28    13    19 ar  
    29    14    15 2   
    30    14    34 1   
    31    15    16 1   
    32    15    35 1   
    33    16    17 1   
    34    16    18 1   
    35    16    36 1   
    36    17    18 1   
    37    17    37 1   
    38    17    38 1   
    39    18    39 1   
    40    18    40 1   
    41    19    20 ar  
    42    19    41 1   
    43    20    21 ar  
    44    20    42 1   
    45    22    23 1   
@<TRIPOS>SUBSTRUCTURE
     1 LXG         1 TEMP              0 ****  ****    0 ROOT
