@<TRIPOS>MOLECULE
LXG
   42    45     1     0     0
SMALL
abcg2


@<TRIPOS>ATOM
      1 C1          -2.5500    -3.4600     1.4730 c3         1 LXG       0.149600
      2 N1          -2.9460    -3.3220     0.0880 n3         1 LXG      -0.692600
      3 O1          -4.2290     2.4730     0.2070 o          1 LXG      -0.538000
      4 S1          -1.1050     3.0640     0.0430 ss         1 LXG       0.152400
      5 C2          -3.5490    -4.5410    -0.4110 c3         1 LXG       0.149600
      6 N2          -1.7990    -0.7900    -0.1390 nc         1 LXG      -0.579300
      7 C3          -3.8050    -2.1900    -0.1210 c3         1 LXG       0.132500
      8 N3          -3.8870     0.2190     0.0780 ns         1 LXG      -0.418400
      9 C4          -3.0840    -0.8710    -0.0480 cd         1 LXG       0.490900
     10 C5          -1.2740     0.4620    -0.0960 cc         1 LXG       0.218400
     11 C6           0.1320     0.7590    -0.1520 ca         1 LXG      -0.070800
     12 C7           1.2070    -0.1250    -0.2470 ca         1 LXG      -0.034000
     13 C8           2.5080     0.3580    -0.2670 ca         1 LXG      -0.061800
     14 C9           3.6160    -0.5960    -0.3410 ce         1 LXG      -0.164200
     15 C10          4.9100    -0.3270    -0.1380 c2         1 LXG      -0.172200
     16 C11          5.9830    -1.3250    -0.2160 cx         1 LXG      -0.101500
     17 C12          7.3470    -0.9020    -0.7030 cx         1 LXG      -0.121400
     18 C13          7.1490    -1.2260     0.7370 cx         1 LXG      -0.121400
     19 C14          2.7100     1.7540    -0.2130 ca         1 LXG      -0.078000
     20 C15          1.6620     2.6430    -0.1220 ca         1 LXG      -0.095000
     21 C16          0.3630     2.1390    -0.0850 ca         1 LXG      -0.151000
     22 C17         -2.0300     1.6050     0.0120 cd         1 LXG      -0.222600
     23 C18         -3.4550     1.5370     0.1060 c          1 LXG       0.601200
     24 H1          -3.4010    -3.6550     2.1450 h1         1 LXG       0.035700
     25 H1A         -1.8470    -4.2870     1.5760 h1         1 LXG       0.035700
     26 H1B         -2.0450    -2.5590     1.8200 h1         1 LXG       0.035700
     27 H2          -4.4700    -4.8250     0.1210 h1         1 LXG       0.035700
     28 H2A         -3.7930    -4.4350    -1.4680 h1         1 LXG       0.035700
     29 H2B         -2.8420    -5.3650    -0.3120 h1         1 LXG       0.035700
     30 H3          -4.2430    -2.2510    -1.1230 h1         1 LXG       0.048200
     31 H3A         -4.6600    -2.1620     0.5770 h1         1 LXG       0.048200
     32 HN3         -4.8870     0.0730     0.1540 hn         1 LXG       0.326500
     33 H7           1.0180    -1.1910    -0.2940 ha         1 LXG       0.136000
     34 H9           3.3310    -1.6190    -0.5660 ha         1 LXG       0.175000
     35 H10          5.2250     0.6830     0.1160 ha         1 LXG       0.168000
     36 H11          5.6670    -2.3270    -0.4860 hc         1 LXG       0.081700
     37 H12          7.8930    -1.6030    -1.3200 hc         1 LXG       0.072200
     38 H12A         7.4810     0.1360    -0.9810 hc         1 LXG       0.072200
     39 H13          7.1440    -0.4120     1.4510 hc         1 LXG       0.072200
     40 H13A         7.5560    -2.1530     1.1200 hc         1 LXG       0.072200
     41 H14          3.7160     2.1520    -0.2540 ha         1 LXG       0.114000
     42 H15          1.8480     3.7090    -0.0860 ha         1 LXG       0.123000
@<TRIPOS>BOND
     1     1     2 1   
     2     1    24 1   
     3     1    25 1   
     4     1    26 1   
     5     2     5 1   
     6     2     7 1   
     7     3    23 2   
     8     4    21 1   
     9     4    22 1   
    10     5    27 1   
    11     5    28 1   
    12     5    29 1   
    13     6     9 2   
    14     6    10 1   
    15     7     9 1   
    16     7    30 1   
    17     7    31 1   
    18     8     9 1   
    19     8    23 1   
    20     8    32 1   
    21    10    11 1   
    22    10    22 2   
    23    11    12 ar  
    24    11    21 ar  
    25    12    13 ar  
    26    12    33 1   
    27    13    14 1   
    28    13    19 ar  
    29    14    15 2   
    30    14    34 1   
    31    15    16 1   
    32    15    35 1   
    33    16    17 1   
    34    16    18 1   
    35    16    36 1   
    36    17    18 1   
    37    17    37 1   
    38    17    38 1   
    39    18    39 1   
    40    18    40 1   
    41    19    20 ar  
    42    19    41 1   
    43    20    21 ar  
    44    20    42 1   
    45    22    23 1   
@<TRIPOS>SUBSTRUCTURE
     1 LXG         1 TEMP              0 ****  ****    0 ROOT
