@<TRIPOS>MOLECULE
LXH
   24    24     1     0     0
SMALL
No Charge or Current Charge


@<TRIPOS>ATOM
      1 C10         19.5460    22.9120     4.2370 c3         1 LXH       0.149900
      2 C01         17.6370    26.5030    -0.5890 ca         1 LXH      -0.112000
      3 O01         20.5780    22.7820     1.6930 o          1 LXH      -0.484000
      4 C02         18.2070    25.2250    -0.4590 ca         1 LXH      -0.095000
      5 O02         18.7340    22.9520     3.0500 os         1 LXH      -0.441100
      6 C03         17.7370    24.3260     0.5210 ca         1 LXH      -0.088300
      7 C04         16.6890    24.7340     1.3750 ca         1 LXH      -0.095000
      8 C05         16.1200    26.0130     1.2450 ca         1 LXH      -0.112000
      9 C06         16.5920    26.8980     0.2620 ca         1 LXH      -0.103000
     10 C07         18.3770    22.9370     0.6490 c3         1 LXH      -0.068400
     11 C08         19.3660    22.8880     1.8320 c          1 LXH       0.593100
     12 C09         17.3350    21.7900     0.7100 c3         1 LXH      -0.077100
     13 H1          18.9150    22.9730     5.1330 h1         1 LXH       0.048033
     14 H2          20.1200    21.9780     4.2890 h1         1 LXH       0.048033
     15 H3          20.2490    23.7560     4.2590 h1         1 LXH       0.048033
     16 H5          19.0180    24.9350    -1.1250 ha         1 LXH       0.117500
     17 H6          16.3160    24.0670     2.1490 ha         1 LXH       0.117500
     18 H7          15.3140    26.3180     1.9090 ha         1 LXH       0.113500
     19 H8          16.1520    27.8870     0.1620 ha         1 LXH       0.113000
     20 H9          18.9810    22.7560    -0.2480 hc         1 LXH       0.079700
     21 H10         17.8380    20.8160     0.7000 hc         1 LXH       0.044367
     22 H11         16.7230    21.8430     1.6170 hc         1 LXH       0.044367
     23 H12         16.6650    21.8350    -0.1580 hc         1 LXH       0.044367
     24 H4          18.0070    27.1880    -1.3490 ha         1 LXH       0.113500
@<TRIPOS>BOND
     1     1     5 1   
     2     1    13 1   
     3     1    14 1   
     4     1    15 1   
     5     2     4 ar  
     6     2     9 ar  
     7     2    24 1   
     8     3    11 2   
     9     4     6 ar  
    10     4    16 1   
    11     5    11 1   
    12     6     7 ar  
    13     6    10 1   
    14     7     8 ar  
    15     7    17 1   
    16     8     9 ar  
    17     8    18 1   
    18     9    19 1   
    19    10    11 1   
    20    10    12 1   
    21    10    20 1   
    22    12    21 1   
    23    12    22 1   
    24    12    23 1   
@<TRIPOS>SUBSTRUCTURE
     1 LXH         1 TEMP              0 ****  ****    0 ROOT
