@<TRIPOS>MOLECULE
LXH
   24    24     1     0     0
SMALL
abcg2


@<TRIPOS>ATOM
      1 C10         19.4980    22.7310     4.2150 c3         1 LXH       0.149900
      2 C01         17.5670    26.4110    -0.7010 ca         1 LXH      -0.112000
      3 O01         20.4700    23.3690     1.8170 o          1 LXH      -0.484000
      4 C02         18.1270    25.1490    -0.5410 ca         1 LXH      -0.095000
      5 O02         18.7270    22.6630     3.0150 os         1 LXH      -0.441100
      6 C03         17.7640    24.3390     0.5300 ca         1 LXH      -0.088300
      7 C04         16.8300    24.8190     1.4470 ca         1 LXH      -0.095000
      8 C05         16.2710    26.0800     1.2900 ca         1 LXH      -0.112000
      9 C06         16.6370    26.8800     0.2150 ca         1 LXH      -0.103000
     10 C07         18.3850    22.9650     0.6900 c3         1 LXH      -0.068400
     11 C08         19.3200    23.0130     1.8840 c          1 LXH       0.593100
     12 C09         17.3430    21.8510     0.7480 c3         1 LXH      -0.077100
     13 H1          18.8370    22.4080     5.0130 h1         1 LXH       0.048033
     14 H2          20.3630    22.0700     4.1710 h1         1 LXH       0.048033
     15 H3          19.8340    23.7490     4.4130 h1         1 LXH       0.048033
     16 H5          18.8510    24.7890    -1.2620 ha         1 LXH       0.117500
     17 H6          16.5280    24.2120     2.2920 ha         1 LXH       0.117500
     18 H7          15.5470    26.4380     2.0100 ha         1 LXH       0.113500
     19 H8          16.1990    27.8630     0.0940 ha         1 LXH       0.113000
     20 H9          19.0290    22.7910    -0.1750 hc         1 LXH       0.079700
     21 H10         17.8150    20.8760     0.8680 hc         1 LXH       0.044367
     22 H11         16.6330    21.9860     1.5620 hc         1 LXH       0.044367
     23 H12         16.7820    21.8360    -0.1860 hc         1 LXH       0.044367
     24 H4          17.8600    27.0250    -1.5430 ha         1 LXH       0.113500
@<TRIPOS>BOND
     1     1     5 1   
     2     1    13 1   
     3     1    14 1   
     4     1    15 1   
     5     2     4 ar  
     6     2     9 ar  
     7     2    24 1   
     8     3    11 2   
     9     4     6 ar  
    10     4    16 1   
    11     5    11 1   
    12     6     7 ar  
    13     6    10 1   
    14     7     8 ar  
    15     7    17 1   
    16     8     9 ar  
    17     8    18 1   
    18     9    19 1   
    19    10    11 1   
    20    10    12 1   
    21    10    20 1   
    22    12    21 1   
    23    12    22 1   
    24    12    23 1   
@<TRIPOS>SUBSTRUCTURE
     1 LXH         1 TEMP              0 ****  ****    0 ROOT
