@<TRIPOS>MOLECULE
LXI
   46    49     1     0     0
SMALL
No Charge or Current Charge


@<TRIPOS>ATOM
      1 N1          14.1450    10.2130    40.2810 na         1 LXI      -0.211500
      2 C1          13.8920    10.3090    38.9270 cc         1 LXI       0.397400
      3 N2          12.5920    10.2290    38.6620 nd         1 LXI      -0.592000
      4 C2          11.9800    10.0620    39.8980 cd         1 LXI       0.108500
      5 C3          10.5410     9.9080    40.2610 c          1 LXI       0.525500
      6 N3          10.3630     9.7550    41.6040 ns         1 LXI      -0.456400
      7 C4          11.3760     9.7290    42.4880 cd         1 LXI       0.734800
      8 N4          12.6580     9.8420    42.2350 nc         1 LXI      -0.715100
      9 C5          12.9280    10.0420    40.8950 cc         1 LXI       0.146400
     10 O1           9.6020     9.9090    39.4770 o          1 LXI      -0.515000
     11 N5          11.0650     9.4960    43.7450 nv         1 LXI      -1.051200
     12 C6          15.4530    10.4260    40.9030 c5         1 LXI       0.312300
     13 O2          15.9390     9.2030    41.5020 os         1 LXI      -0.414000
     14 C7          15.5750    11.5210    42.0110 c5         1 LXI       0.155300
     15 O3          15.6720    12.8620    41.5070 oh         1 LXI      -0.671000
     16 C8          16.9290    11.0780    42.6330 c5         1 LXI       0.097300
     17 O4          18.0290    11.4550    41.7820 oh         1 LXI      -0.677000
     18 C9          16.7030     9.5270    42.6970 c5         1 LXI       0.127300
     19 C10         15.9340     9.0840    43.9750 c3         1 LXI       0.173600
     20 O5          15.8190     7.6470    44.0090 os         1 LXI      -0.557400
     21 P1          14.3540     6.9570    44.0140 p5         1 LXI       0.989300
     22 S1          13.8890     6.8080    41.9750 sh         1 LXI      -0.489200
     23 O6          13.3240     7.5720    44.8970 o          1 LXI      -0.488000
     24 N6          14.5960     5.1750    44.3370 na         1 LXI      -0.244000
     25 C11         13.6090     4.2240    44.5340 cc         1 LXI      -0.203000
     26 C12         14.2820     3.0300    44.6440 cd         1 LXI       0.278900
     27 N7          15.6460     3.2220    44.5220 nd         1 LXI      -0.716000
     28 C13         15.7790     4.5040    44.3410 cc         1 LXI       0.656400
     29 N8          16.9830     5.0630    44.2220 nv         1 LXI      -1.029900
     30 H1          14.6810    10.4610    38.2000 h5         1 LXI       0.072100
     31 H2           9.4180     9.6180    41.9220 hn         1 LXI       0.321500
     32 H3          11.8550     9.5400    44.3750 hn         1 LXI       0.499500
     33 H4          10.2020     9.8930    44.0940 hn         1 LXI       0.499500
     34 H5          16.1320    10.6950    40.0840 h2         1 LXI       0.118700
     35 H6          14.7540    11.4420    42.7360 h1         1 LXI       0.067700
     36 H7          16.6380    12.9830    41.3320 ho         1 LXI       0.515000
     37 H8          17.0640    11.5050    43.6370 h1         1 LXI       0.049700
     38 H9          18.8670    11.2030    42.2400 ho         1 LXI       0.506000
     39 H10         17.6560     8.9830    42.6730 h1         1 LXI       0.094700
     40 H11         16.4890     9.4310    44.8560 h1         1 LXI       0.054700
     41 H12         14.9490     9.5680    43.9970 h1         1 LXI       0.054700
     42 H13         13.3760     8.0620    42.0930 hs         1 LXI       0.317800
     43 H14         12.5500     4.4490    44.5720 h4         1 LXI       0.187000
     44 H15         13.8580     2.0450    44.8020 h4         1 LXI       0.042100
     45 H16         17.7470     4.4560    43.9550 hn         1 LXI       0.465000
     46 H17         17.0180     6.0410    43.9440 hn         1 LXI       0.465000
@<TRIPOS>BOND
     1     1     2 1   
     2     1     9 1   
     3     1    12 1   
     4     2     3 2   
     5     2    30 1   
     6     3     4 1   
     7     4     5 1   
     8     4     9 2   
     9     5     6 1   
    10     5    10 2   
    11     6     7 1   
    12     6    31 1   
    13     7     8 2   
    14     7    11 1   
    15     8     9 1   
    16    11    32 1   
    17    11    33 1   
    18    12    13 1   
    19    12    14 1   
    20    12    34 1   
    21    13    18 1   
    22    14    15 1   
    23    14    16 1   
    24    14    35 1   
    25    15    36 1   
    26    16    17 1   
    27    16    18 1   
    28    16    37 1   
    29    17    38 1   
    30    18    19 1   
    31    18    39 1   
    32    19    20 1   
    33    19    40 1   
    34    19    41 1   
    35    20    21 1   
    36    21    22 1   
    37    21    23 2   
    38    21    24 1   
    39    22    42 1   
    40    24    25 1   
    41    24    28 1   
    42    25    26 2   
    43    25    43 1   
    44    26    27 1   
    45    26    44 1   
    46    27    28 2   
    47    28    29 1   
    48    29    45 1   
    49    29    46 1   
@<TRIPOS>SUBSTRUCTURE
     1 LXI         1 TEMP              0 ****  ****    0 ROOT
