@<TRIPOS>MOLECULE
LXI
   46    49     1     0     0
SMALL
bcc


@<TRIPOS>ATOM
      1 N1          14.1210     9.4060    41.2250 na         1 LXI      -0.232900
      2 C1          14.0470     8.0540    40.9740 cc         1 LXI       0.397400
      3 N2          12.8300     7.6060    40.9590 nd         1 LXI      -0.592000
      4 C2          12.0530     8.7060    41.1980 cd         1 LXI       0.173800
      5 C3          10.6390     8.8190    41.3220 c          1 LXI       0.668000
      6 N3          10.2700    10.1450    41.5760 ns         1 LXI      -0.523400
      7 C4          11.1230    11.2050    41.6980 cd         1 LXI       0.734800
      8 N4          12.4220    11.0930    41.5900 nc         1 LXI      -0.715100
      9 C5          12.8350     9.8380    41.3560 cc         1 LXI       0.131800
     10 O1           9.7930     7.9450    41.2390 o          1 LXI      -0.590500
     11 N5          10.5770    12.3990    41.9740 nv         1 LXI      -0.940800
     12 C6          15.3640    10.1820    41.1760 c5         1 LXI       0.259800
     13 O2          16.4130     9.3250    41.4990 os         1 LXI      -0.367600
     14 C7          15.4110    11.3560    42.1780 c5         1 LXI       0.132100
     15 O3          15.2750    12.5590    41.4930 oh         1 LXI      -0.548800
     16 C8          16.7740    11.1550    42.8760 c5         1 LXI       0.074100
     17 O4          17.7550    11.8250    42.1400 oh         1 LXI      -0.554800
     18 C9          16.9180     9.6390    42.7860 c5         1 LXI       0.104100
     19 C10         16.1580     8.9560    43.9160 c3         1 LXI       0.150400
     20 O5          15.9090     7.6000    43.5430 os         1 LXI      -0.534200
     21 P1          14.9550     6.6880    44.4470 p5         1 LXI       1.218600
     22 S1          13.0600     7.5120    44.2170 sh         1 LXI      -0.489200
     23 O6          15.3630     6.4880    45.8510 o          1 LXI      -0.717300
     24 N6          14.9630     5.2910    43.4720 na         1 LXI      -0.294700
     25 C11         13.8570     4.5350    43.0700 cc         1 LXI      -0.235600
     26 C12         14.3700     3.4030    42.5430 cd         1 LXI       0.344200
     27 N7          15.7460     3.4130    42.5880 nd         1 LXI      -0.716000
     28 C13         16.0740     4.5390    43.1480 cc         1 LXI       0.656400
     29 N8          17.3410     4.9350    43.4800 nv         1 LXI      -0.919500
     30 H1          14.9290     7.4580    40.8070 h5         1 LXI       0.072100
     31 H2           9.2770    10.3080    41.6870 hn         1 LXI       0.321500
     32 H3          11.1760    13.2060    41.9240 hn         1 LXI       0.444300
     33 H4           9.5910    12.5620    41.8580 hn         1 LXI       0.444300
     34 H5          15.4990    10.5430    40.1520 h2         1 LXI       0.118700
     35 H6          14.6230    11.2290    42.9270 h1         1 LXI       0.067700
     36 H7          15.0610    13.2520    42.1250 ho         1 LXI       0.416000
     37 H8          16.7370    11.5000    43.9180 h1         1 LXI       0.049700
     38 H9          18.5990    11.7180    42.5910 ho         1 LXI       0.407000
     39 H10         17.9610     9.3130    42.8070 h1         1 LXI       0.094700
     40 H11         16.7660     8.9980    44.8230 h1         1 LXI       0.054700
     41 H12         15.2060     9.4490    44.1360 h1         1 LXI       0.054700
     42 H13         12.7750     7.4260    45.5230 hs         1 LXI       0.317800
     43 H14         12.8470     4.8880    43.1820 h4         1 LXI       0.205000
     44 H15         13.8260     2.5760    42.1150 h4         1 LXI       0.042100
     45 H16         18.0400     4.2930    43.1360 hn         1 LXI       0.409800
     46 H17         17.5820     5.8870    43.2460 hn         1 LXI       0.409800
@<TRIPOS>BOND
     1     1     2 1   
     2     1     9 1   
     3     1    12 1   
     4     2     3 2   
     5     2    30 1   
     6     3     4 1   
     7     4     5 1   
     8     4     9 2   
     9     5     6 1   
    10     5    10 2   
    11     6     7 1   
    12     6    31 1   
    13     7     8 2   
    14     7    11 1   
    15     8     9 1   
    16    11    32 1   
    17    11    33 1   
    18    12    13 1   
    19    12    14 1   
    20    12    34 1   
    21    13    18 1   
    22    14    15 1   
    23    14    16 1   
    24    14    35 1   
    25    15    36 1   
    26    16    17 1   
    27    16    18 1   
    28    16    37 1   
    29    17    38 1   
    30    18    19 1   
    31    18    39 1   
    32    19    20 1   
    33    19    40 1   
    34    19    41 1   
    35    20    21 1   
    36    21    22 1   
    37    21    23 2   
    38    21    24 1   
    39    22    42 1   
    40    24    25 1   
    41    24    28 1   
    42    25    26 2   
    43    25    43 1   
    44    26    27 1   
    45    26    44 1   
    46    27    28 2   
    47    28    29 1   
    48    29    45 1   
    49    29    46 1   
@<TRIPOS>SUBSTRUCTURE
     1 LXI         1 TEMP              0 ****  ****    0 ROOT
