@<TRIPOS>MOLECULE
LXJ
   35    37     1     0     0
SMALL
bcc


@<TRIPOS>ATOM
      1 N1          18.7540   -27.8050   -12.2300 ns         1 LXJ      -0.583900
      2 C4          18.7090   -26.7570   -11.2320 c5         1 LXJ       0.106000
      3 C5          18.5270   -27.3850   -13.4870 c          1 LXJ       0.707500
      4 C6          18.2710   -25.8890   -13.4160 c5         1 LXJ      -0.153700
      5 C7          17.2560   -25.3550   -14.4030 c3         1 LXJ      -0.072400
      6 C8          17.1130   -23.8400   -14.3220 c3         1 LXJ       0.106000
      7 C10         13.9400   -23.9330   -14.6020 ca         1 LXJ      -0.093500
      8 C13         13.0230   -21.5480   -15.6880 ca         1 LXJ      -0.134000
      9 N           16.5630   -23.3280   -13.0650 n          1 LXJ      -0.410000
     10 C           15.3820   -22.6600   -12.9730 c          1 LXJ       0.680700
     11 O           15.0770   -22.0330   -11.9700 o          1 LXJ      -0.580100
     12 C1          17.4320   -23.2370   -11.9490 c2         1 LXJ      -0.013400
     13 C11         12.9910   -23.9510   -15.6140 ca         1 LXJ      -0.134000
     14 C12         12.5380   -22.7590   -16.1640 ca         1 LXJ      -0.110000
     15 C14         13.9550   -21.5280   -14.6600 ca         1 LXJ      -0.093500
     16 C2          18.0780   -24.2850   -11.4520 c2         1 LXJ      -0.196200
     17 C3          17.8910   -25.6820   -11.9480 c5         1 LXJ      -0.039500
     18 C9          14.4330   -22.7210   -14.1260 ca         1 LXJ      -0.145600
     19 O1          18.5490   -28.0700   -14.4960 o          1 LXJ      -0.626500
     20 H1          19.0600   -28.7420   -12.0210 hn         1 LXJ       0.329500
     21 H2          18.2350   -27.1030   -10.3150 h1         1 LXJ       0.048200
     22 H3          19.7130   -26.3980   -10.9830 h1         1 LXJ       0.048200
     23 H4          19.2400   -25.4050   -13.6070 hc         1 LXJ       0.075700
     24 H5          16.2870   -25.8330   -14.2390 hc         1 LXJ       0.063200
     25 H6          17.5640   -25.6020   -15.4210 hc         1 LXJ       0.063200
     26 H7          18.0930   -23.3780   -14.4660 h1         1 LXJ       0.055200
     27 H8          16.4880   -23.4910   -15.1410 h1         1 LXJ       0.055200
     28 H10         12.6720   -20.6170   -16.1120 ha         1 LXJ       0.136000
     29 H11         17.5650   -22.2480   -11.5270 h4         1 LXJ       0.152000
     30 H12         12.6070   -24.8970   -15.9730 ha         1 LXJ       0.136000
     31 H13         11.8050   -22.7740   -16.9600 ha         1 LXJ       0.134000
     32 H14         14.3220   -20.5810   -14.2850 ha         1 LXJ       0.140000
     33 H15         18.7690   -24.1110   -10.6360 ha         1 LXJ       0.137000
     34 H16         16.8310   -25.9500   -11.8480 hc         1 LXJ       0.074700
     35 H9          14.2850   -24.8680   -14.1780 ha         1 LXJ       0.140000
@<TRIPOS>BOND
     1     1     2 1   
     2     1     3 1   
     3     1    20 1   
     4     2    17 1   
     5     2    21 1   
     6     2    22 1   
     7     3     4 1   
     8     3    19 2   
     9     4     5 1   
    10     4    17 1   
    11     4    23 1   
    12     5     6 1   
    13     5    24 1   
    14     5    25 1   
    15     6     9 1   
    16     6    26 1   
    17     6    27 1   
    18     7    13 ar  
    19     7    18 ar  
    20     7    35 1   
    21     8    14 ar  
    22     8    15 ar  
    23     8    28 1   
    24     9    10 1   
    25     9    12 1   
    26    10    11 2   
    27    10    18 1   
    28    12    16 2   
    29    12    29 1   
    30    13    14 ar  
    31    13    30 1   
    32    14    31 1   
    33    15    18 ar  
    34    15    32 1   
    35    16    17 1   
    36    16    33 1   
    37    17    34 1   
@<TRIPOS>SUBSTRUCTURE
     1 LXJ         1 TEMP              0 ****  ****    0 ROOT
