@<TRIPOS>MOLECULE
LXJ
   35    37     1     0     0
SMALL
No Charge or Current Charge


@<TRIPOS>ATOM
      1 N1          18.7310   -27.8820   -12.2610 ns         1 LXJ      -0.516900
      2 C4          18.5980   -26.8790   -11.2060 c5         1 LXJ       0.106000
      3 C5          18.6360   -27.3830   -13.5320 c          1 LXJ       0.565000
      4 C6          18.3680   -25.8810   -13.3760 c5         1 LXJ      -0.153700
      5 C7          17.4700   -25.2760   -14.4810 c3         1 LXJ      -0.072400
      6 C8          17.2340   -23.7540   -14.3560 c3         1 LXJ       0.106000
      7 C10         14.0700   -23.8510   -14.5700 ca         1 LXJ      -0.075500
      8 C13         12.7490   -21.6160   -15.6400 ca         1 LXJ      -0.116000
      9 N           16.6280   -23.2920   -13.0750 n          1 LXJ      -0.343000
     10 C           15.5750   -22.3380   -13.1580 c          1 LXJ       0.613700
     11 O           15.4920   -21.4130   -12.3570 o          1 LXJ      -0.580100
     12 C1          17.4230   -23.3240   -11.8980 c2         1 LXJ      -0.063400
     13 C11         13.0340   -24.0250   -15.5040 ca         1 LXJ      -0.116000
     14 C12         12.3770   -22.9080   -16.0440 ca         1 LXJ      -0.092000
     15 C14         13.7840   -21.4400   -14.7050 ca         1 LXJ      -0.075500
     16 C2          17.9870   -24.4160   -11.3530 c2         1 LXJ      -0.246200
     17 C3          17.7600   -25.8000   -11.9540 c5         1 LXJ      -0.039500
     18 C9          14.4710   -22.5540   -14.1750 ca         1 LXJ      -0.145600
     19 O1          18.5590   -28.0900   -14.5240 o          1 LXJ      -0.551000
     20 H1          18.8220   -28.8830   -12.1300 hn         1 LXJ       0.329500
     21 H2          18.0790   -27.2600   -10.3160 h1         1 LXJ       0.048200
     22 H3          19.5810   -26.4960   -10.9000 h1         1 LXJ       0.048200
     23 H4          19.3430   -25.3780   -13.3740 hc         1 LXJ       0.075700
     24 H5          16.5050   -25.7940   -14.4960 hc         1 LXJ       0.063200
     25 H6          17.9250   -25.4640   -15.4610 hc         1 LXJ       0.063200
     26 H7          18.2050   -23.2530   -14.4590 h1         1 LXJ       0.055200
     27 H8          16.6290   -23.4220   -15.2100 h1         1 LXJ       0.055200
     28 H10         12.2340   -20.7490   -16.0500 ha         1 LXJ       0.118000
     29 H11         17.5620   -22.3420   -11.4390 h4         1 LXJ       0.202000
     30 H12         12.7350   -25.0270   -15.8020 ha         1 LXJ       0.118000
     31 H13         11.5740   -23.0430   -16.7660 ha         1 LXJ       0.116000
     32 H14         14.0610   -20.4320   -14.4020 ha         1 LXJ       0.122000
     33 H15         18.5820   -24.3020   -10.4440 ha         1 LXJ       0.187000
     34 H16         16.6960   -26.0700   -11.9540 hc         1 LXJ       0.074700
     35 H9          14.5400   -24.7280   -14.1360 ha         1 LXJ       0.122000
@<TRIPOS>BOND
     1     1     2 1   
     2     1     3 1   
     3     1    20 1   
     4     2    17 1   
     5     2    21 1   
     6     2    22 1   
     7     3     4 1   
     8     3    19 2   
     9     4     5 1   
    10     4    17 1   
    11     4    23 1   
    12     5     6 1   
    13     5    24 1   
    14     5    25 1   
    15     6     9 1   
    16     6    26 1   
    17     6    27 1   
    18     7    13 ar  
    19     7    18 ar  
    20     7    35 1   
    21     8    14 ar  
    22     8    15 ar  
    23     8    28 1   
    24     9    10 1   
    25     9    12 1   
    26    10    11 2   
    27    10    18 1   
    28    12    16 2   
    29    12    29 1   
    30    13    14 ar  
    31    13    30 1   
    32    14    31 1   
    33    15    18 ar  
    34    15    32 1   
    35    16    17 1   
    36    16    33 1   
    37    17    34 1   
@<TRIPOS>SUBSTRUCTURE
     1 LXJ         1 TEMP              0 ****  ****    0 ROOT
