@<TRIPOS>MOLECULE
LXK
   28    29     1     0     0
SMALL
No Charge or Current Charge


@<TRIPOS>ATOM
      1 C4         -28.9000    52.1430   -12.9520 c6         1 LXK       0.018300
      2 C5         -32.5930    53.1010   -13.2870 cc         1 LXK       0.248000
      3 C6         -30.7820    54.7170   -13.0640 ch         1 LXK       0.364000
      4 C8         -30.6280    49.6270   -13.3150 c6         1 LXK       0.002900
      5 C10        -28.2410    52.7160   -14.2460 c3         1 LXK      -0.082100
      6 N12        -33.6210    54.0140   -13.3650 nv         1 LXK      -1.066000
      7 C1         -30.4390    52.1810   -13.0940 cd         1 LXK      -0.005300
      8 C2         -31.2520    53.3770   -13.1380 cd         1 LXK      -0.163000
      9 C3         -31.1850    51.0280   -13.2510 cc         1 LXK      -0.215300
     10 S7         -32.8980    51.3700   -13.3880 ss         1 LXK       0.146000
     11 C9         -28.4120    50.6730   -12.7200 c6         1 LXK      -0.070400
     12 C11        -28.3870    52.9850   -11.7390 c3         1 LXK      -0.082100
     13 N13        -30.4260    55.8290   -13.0130 n1         1 LXK      -0.493000
     14 C14        -29.1210    49.6530   -13.6340 c6         1 LXK      -0.070400
     15 H1         -31.1540    49.0280   -14.0720 hc         1 LXK       0.049200
     16 H2         -30.7900    49.1170   -12.3550 hc         1 LXK       0.049200
     17 H3         -27.1480    52.6310   -14.2100 hc         1 LXK       0.038867
     18 H4         -28.5840    52.1850   -15.1410 hc         1 LXK       0.038867
     19 H5         -28.4760    53.7760   -14.3910 hc         1 LXK       0.038867
     20 H6         -34.5900    53.6970   -13.3540 hn         1 LXK       0.479500
     21 H7         -33.4500    55.0020   -13.1780 hn         1 LXK       0.479500
     22 H8         -28.5920    50.3830   -11.6750 hc         1 LXK       0.043200
     23 H9         -27.3240    50.6050   -12.8640 hc         1 LXK       0.043200
     24 H10        -28.9430    52.7410   -10.8260 hc         1 LXK       0.038867
     25 H11        -27.3270    52.7860   -11.5400 hc         1 LXK       0.038867
     26 H12        -28.4690    54.0640   -11.9010 hc         1 LXK       0.038867
     27 H13        -28.6940    48.6520   -13.4860 hc         1 LXK       0.045200
     28 H14        -28.9630    49.9060   -14.6910 hc         1 LXK       0.045200
@<TRIPOS>BOND
     1     1     5 1   
     2     1     7 1   
     3     1    11 1   
     4     1    12 1   
     5     2     6 1   
     6     2     8 2   
     7     2    10 1   
     8     3     8 1   
     9     3    13 3   
    10     4     9 1   
    11     4    14 1   
    12     4    15 1   
    13     4    16 1   
    14     5    17 1   
    15     5    18 1   
    16     5    19 1   
    17     6    20 1   
    18     6    21 1   
    19     7     8 1   
    20     7     9 2   
    21     9    10 1   
    22    11    14 1   
    23    11    22 1   
    24    11    23 1   
    25    12    24 1   
    26    12    25 1   
    27    12    26 1   
    28    14    27 1   
    29    14    28 1   
@<TRIPOS>SUBSTRUCTURE
     1 LXK         1 TEMP              0 ****  ****    0 ROOT
