@<TRIPOS>MOLECULE
LXK
   28    29     1     0     0
SMALL
bcc


@<TRIPOS>ATOM
      1 C4         -28.8880    52.1430   -12.9640 c6         1 LXK       0.018300
      2 C5         -32.5630    53.1080   -13.2890 cc         1 LXK       0.254500
      3 C6         -30.7560    54.7030   -13.1120 ch         1 LXK       0.274800
      4 C8         -30.6360    49.6500   -13.3090 c6         1 LXK       0.002900
      5 C10        -28.2310    52.7090   -14.2300 c3         1 LXK      -0.082100
      6 N12        -33.5790    53.9890   -13.4020 nv         1 LXK      -0.817200
      7 C1         -30.3940    52.1770   -13.1140 cd         1 LXK      -0.005300
      8 C2         -31.2100    53.3710   -13.1520 cd         1 LXK      -0.163000
      9 C3         -31.1370    51.0550   -13.2470 cc         1 LXK      -0.070400
     10 S7         -32.8380    51.4100   -13.3890 ss         1 LXK      -0.143800
     11 C9         -28.4360    50.6880   -12.7390 c6         1 LXK      -0.070400
     12 C11        -28.4360    52.9620   -11.7500 c3         1 LXK      -0.082100
     13 N13        -30.4330    55.8130   -13.0960 n1         1 LXK      -0.403800
     14 C14        -29.1450    49.6740   -13.6250 c6         1 LXK      -0.070400
     15 H1         -31.1800    49.0800   -14.0660 hc         1 LXK       0.049200
     16 H2         -30.8100    49.1390   -12.3560 hc         1 LXK       0.049200
     17 H3         -27.1440    52.7060   -14.1220 hc         1 LXK       0.038867
     18 H4         -28.4840    52.1220   -15.1130 hc         1 LXK       0.038867
     19 H5         -28.5380    53.7390   -14.4180 hc         1 LXK       0.038867
     20 H6         -34.5220    53.6690   -13.2540 hn         1 LXK       0.424300
     21 H7         -33.4190    54.9380   -13.0990 hn         1 LXK       0.424300
     22 H8         -28.6150    50.4170   -11.6930 hc         1 LXK       0.043200
     23 H9         -27.3550    50.6360   -12.8880 hc         1 LXK       0.043200
     24 H10        -28.9490    52.6390   -10.8420 hc         1 LXK       0.038867
     25 H11        -27.3640    52.8250   -11.5950 hc         1 LXK       0.038867
     26 H12        -28.6070    54.0300   -11.8750 hc         1 LXK       0.038867
     27 H13        -28.7200    48.6800   -13.4690 hc         1 LXK       0.045200
     28 H14        -28.9990    49.9160   -14.6800 hc         1 LXK       0.045200
@<TRIPOS>BOND
     1     1     5 1   
     2     1     7 1   
     3     1    11 1   
     4     1    12 1   
     5     2     6 1   
     6     2     8 2   
     7     2    10 1   
     8     3     8 1   
     9     3    13 3   
    10     4     9 1   
    11     4    14 1   
    12     4    15 1   
    13     4    16 1   
    14     5    17 1   
    15     5    18 1   
    16     5    19 1   
    17     6    20 1   
    18     6    21 1   
    19     7     8 1   
    20     7     9 2   
    21     9    10 1   
    22    11    14 1   
    23    11    22 1   
    24    11    23 1   
    25    12    24 1   
    26    12    25 1   
    27    12    26 1   
    28    14    27 1   
    29    14    28 1   
@<TRIPOS>SUBSTRUCTURE
     1 LXK         1 TEMP              0 ****  ****    0 ROOT
