@<TRIPOS>MOLECULE
LXL
   62    64     1     0     0
SMALL
abcg2


@<TRIPOS>ATOM
      1 C11          8.5960     3.1460     1.0040 c3         1 LXL      -0.110100
      2 C10          7.1420     3.2610     0.5830 c3         1 LXL       0.114000
      3 N9           6.3770     2.1470     1.1020 ns         1 LXL      -0.522900
      4 C8           5.1670     1.8090     0.6010 c          1 LXL       0.655100
      5 O32          4.6620     2.3640    -0.3640 o          1 LXL      -0.627100
      6 N7           4.5660     0.7650     1.2730 ns         1 LXL      -0.159000
      7 C6           3.3530     0.1770     0.9300 ca         1 LXL      -0.016000
      8 C5           3.2070    -1.2090     1.1450 ca         1 LXL       0.070100
      9 C4           2.0190    -1.8440     0.8340 ca         1 LXL      -0.127000
     10 O12          4.2890    -1.8280     1.6630 os         1 LXL      -0.366100
     11 C13          4.1940    -3.1980     1.9940 c3         1 LXL       0.153900
     12 C1           2.2670     0.8870     0.4310 ca         1 LXL      -0.115000
     13 C2           1.0800     0.2430     0.1160 ca         1 LXL      -0.073000
     14 C3           0.9440    -1.1260     0.3050 cp         1 LXL      -0.141500
     15 C14         -0.3140    -1.8190    -0.0430 cp         1 LXL       0.238500
     16 N19         -1.2990    -1.0670    -0.5220 nb         1 LXL      -0.263000
     17 N15         -0.3730    -3.1290     0.1410 nb         1 LXL      -0.222000
     18 C16         -1.5230    -3.7190    -0.1970 ca         1 LXL       0.140900
     19 C17         -2.6140    -3.0570    -0.7060 ca         1 LXL      -0.259300
     20 C20         -3.8860    -3.7470    -1.0760 c3         1 LXL      -0.028800
     21 C18         -2.4410    -1.6590    -0.8510 ca         1 LXL       0.394900
     22 N21         -3.4290    -0.8820    -1.3350 nu         1 LXL      -0.934100
     23 C22         -3.3430     0.5610    -1.3900 c3         1 LXL       0.297800
     24 C29         -4.4950     1.1070    -2.2340 c3         1 LXL      -0.091400
     25 C30         -4.4340     0.6930    -3.7000 c3         1 LXL      -0.075400
     26 C31         -5.5650     1.3060    -4.5130 c3         1 LXL      -0.091100
     27 C23         -3.3400     1.1870    -0.0140 ca         1 LXL      -0.145300
     28 C24         -2.5250     2.2720     0.2770 ca         1 LXL      -0.057000
     29 C25         -2.5810     2.8480     1.5360 ca         1 LXL      -0.161000
     30 C26         -3.4560     2.3120     2.4680 ca         1 LXL       0.335900
     31 N27         -4.2410     1.2720     2.2090 nb         1 LXL      -0.667000
     32 C28         -4.1770     0.7310     0.9980 ca         1 LXL       0.343900
     33 H1           8.7000     3.1580     2.0900 hc         1 LXL       0.041367
     34 H2           9.0440     2.2270     0.6270 hc         1 LXL       0.041367
     35 H3           9.1660     3.9870     0.6110 hc         1 LXL       0.041367
     36 H4           6.7300     4.2150     0.9270 h1         1 LXL       0.051200
     37 H5           7.0710     3.2600    -0.5050 h1         1 LXL       0.051200
     38 H6           6.6550     1.7790     1.9970 hn         1 LXL       0.307500
     39 H7           5.1480     0.2280     1.8980 hn         1 LXL       0.158000
     40 H8           1.9060    -2.9090     0.9840 ha         1 LXL       0.141000
     41 H9           4.0180    -3.8200     1.1130 h1         1 LXL       0.041367
     42 H10          5.1490    -3.4760     2.4330 h1         1 LXL       0.041367
     43 H11          3.4020    -3.3860     2.7230 h1         1 LXL       0.041367
     44 H12          2.3420     1.9540     0.2890 ha         1 LXL       0.140000
     45 H13          0.2490     0.8160    -0.2730 ha         1 LXL       0.134000
     46 H14         -1.5730    -4.7930    -0.0490 h4         1 LXL       0.016100
     47 H15         -4.7390    -3.3620    -0.5110 hc         1 LXL       0.039700
     48 H16         -4.1190    -3.6270    -2.1370 hc         1 LXL       0.039700
     49 H17         -3.8190    -4.8150    -0.8740 hc         1 LXL       0.039700
     50 H18         -4.3170    -1.3090    -1.5380 hn         1 LXL       0.497000
     51 H19         -2.4010     0.8340    -1.8750 h1         1 LXL       0.079700
     52 H20         -5.4480     0.7950    -1.7910 hc         1 LXL       0.050700
     53 H21         -4.4730     2.1980    -2.1640 hc         1 LXL       0.050700
     54 H22         -3.4710     1.0000    -4.1190 hc         1 LXL       0.043200
     55 H23         -4.4730    -0.3960    -3.7890 hc         1 LXL       0.043200
     56 H24         -5.5450     2.3960    -4.4600 hc         1 LXL       0.034033
     57 H25         -5.4960     1.0250    -5.5650 hc         1 LXL       0.034033
     58 H26         -6.5390     0.9760    -4.1470 hc         1 LXL       0.034033
     59 H27         -1.8480     2.6620    -0.4750 ha         1 LXL       0.120000
     60 H28         -1.9550     3.6910     1.7940 ha         1 LXL       0.125000
     61 H29         -3.5240     2.7360     3.4640 h4         1 LXL       0.018100
     62 H30         -4.8270    -0.1220     0.8240 h4         1 LXL       0.012100
@<TRIPOS>BOND
     1     1     2 1   
     2     1    33 1   
     3     1    34 1   
     4     1    35 1   
     5     2     3 1   
     6     2    36 1   
     7     2    37 1   
     8     3     4 1   
     9     3    38 1   
    10     4     5 2   
    11     4     6 1   
    12     6     7 1   
    13     6    39 1   
    14     7     8 ar  
    15     7    12 ar  
    16     8     9 ar  
    17     8    10 1   
    18     9    14 ar  
    19     9    40 1   
    20    10    11 1   
    21    11    41 1   
    22    11    42 1   
    23    11    43 1   
    24    12    13 ar  
    25    12    44 1   
    26    13    14 ar  
    27    13    45 1   
    28    14    15 1   
    29    15    16 ar  
    30    15    17 ar  
    31    16    21 ar  
    32    17    18 ar  
    33    18    19 ar  
    34    18    46 1   
    35    19    20 1   
    36    19    21 ar  
    37    20    47 1   
    38    20    48 1   
    39    20    49 1   
    40    21    22 1   
    41    22    23 1   
    42    22    50 1   
    43    23    24 1   
    44    23    27 1   
    45    23    51 1   
    46    24    25 1   
    47    24    52 1   
    48    24    53 1   
    49    25    26 1   
    50    25    54 1   
    51    25    55 1   
    52    26    56 1   
    53    26    57 1   
    54    26    58 1   
    55    27    28 ar  
    56    27    32 ar  
    57    28    29 ar  
    58    28    59 1   
    59    29    30 ar  
    60    29    60 1   
    61    30    31 ar  
    62    30    61 1   
    63    31    32 ar  
    64    32    62 1   
@<TRIPOS>SUBSTRUCTURE
     1 LXL         1 TEMP              0 ****  ****    0 ROOT
