@<TRIPOS>MOLECULE
LXL
   62    64     1     0     0
SMALL
No Charge or Current Charge


@<TRIPOS>ATOM
      1 C11          8.7560     3.1960     1.7630 c3         1 LXL      -0.110100
      2 C10          7.3100     3.4080     1.2890 c3         1 LXL       0.114000
      3 N9           6.5590     2.1530     1.2820 ns         1 LXL      -0.522900
      4 C8           5.2420     2.0440     0.9030 c          1 LXL       0.655100
      5 O32          4.5900     3.0100     0.5350 o          1 LXL      -0.627100
      6 N7           4.7740     0.7440     0.9900 ns         1 LXL      -0.159000
      7 C6           3.5080     0.1540     0.7110 ca         1 LXL      -0.016000
      8 C5           3.3720    -1.2360     0.9120 ca         1 LXL       0.070100
      9 C4           2.1360    -1.8720     0.6510 ca         1 LXL      -0.127000
     10 O12          4.4760    -1.9390     1.3660 os         1 LXL      -0.366100
     11 C13          4.4510    -3.3580     1.6060 c3         1 LXL       0.153900
     12 C1           2.3990     0.8910     0.2500 ca         1 LXL      -0.115000
     13 C2           1.1750     0.2530    -0.0080 ca         1 LXL      -0.073000
     14 C3           1.0060    -1.1440     0.1840 cp         1 LXL      -0.141500
     15 C14         -0.3160    -1.8220    -0.0920 cp         1 LXL       0.238500
     16 N19         -1.3290    -1.0610    -0.5550 nb         1 LXL      -0.263000
     17 N15         -0.4100    -3.1490     0.1450 nb         1 LXL      -0.222000
     18 C16         -1.5920    -3.7480    -0.0890 ca         1 LXL       0.140900
     19 C17         -2.7030    -3.0300    -0.5640 ca         1 LXL      -0.259300
     20 C20         -4.0340    -3.7320    -0.8180 c3         1 LXL      -0.028800
     21 C18         -2.5130    -1.6540    -0.7840 ca         1 LXL       0.394900
     22 N21         -3.5530    -0.8590    -1.2530 nu         1 LXL      -0.934100
     23 C22         -3.5250     0.5780    -1.5570 c3         1 LXL       0.297800
     24 C29         -4.8300     0.9880    -2.2800 c3         1 LXL      -0.091400
     25 C30         -4.9760     0.4000    -3.7050 c3         1 LXL      -0.075400
     26 C31         -6.2640     0.8590    -4.4160 c3         1 LXL      -0.091100
     27 C23         -3.3190     1.3810    -0.2790 ca         1 LXL      -0.145300
     28 C24         -2.2610     2.3030    -0.1730 ca         1 LXL      -0.057000
     29 C25         -2.1130     3.0130     1.0300 ca         1 LXL      -0.161000
     30 C26         -3.0210     2.7860     2.0770 ca         1 LXL       0.335900
     31 N27         -4.0450     1.9070     1.9840 nb         1 LXL      -0.667000
     32 C28         -4.1810     1.2190     0.8240 ca         1 LXL       0.343900
     33 H1           8.7740     2.7940     2.7830 hc         1 LXL       0.041367
     34 H2           9.2830     2.4980     1.1020 hc         1 LXL       0.041367
     35 H3           9.2990     4.1490     1.7600 hc         1 LXL       0.041367
     36 H4           6.8060     4.1220     1.9540 h1         1 LXL       0.051200
     37 H5           7.3150     3.8260     0.2730 h1         1 LXL       0.051200
     38 H6           7.0300     1.3060     1.5740 hn         1 LXL       0.307500
     39 H7           5.4600     0.0750     1.3150 hn         1 LXL       0.158000
     40 H8           2.0420    -2.9420     0.8080 ha         1 LXL       0.141000
     41 H9           4.2140    -3.9060     0.6850 h1         1 LXL       0.041367
     42 H10          5.4310    -3.7010     1.9610 h1         1 LXL       0.041367
     43 H11          3.7060    -3.6120     2.3710 h1         1 LXL       0.041367
     44 H12          2.4610     1.9610     0.0830 ha         1 LXL       0.140000
     45 H13          0.3470     0.8630    -0.3620 ha         1 LXL       0.134000
     46 H14         -1.6450    -4.8180     0.1100 h4         1 LXL       0.016100
     47 H15         -4.8330    -3.3010    -0.2020 hc         1 LXL       0.039700
     48 H16         -4.3320    -3.6460    -1.8700 hc         1 LXL       0.039700
     49 H17         -3.9780    -4.8010    -0.5800 hc         1 LXL       0.039700
     50 H18         -4.4160    -1.3570    -1.4580 hn         1 LXL       0.497000
     51 H19         -2.6880     0.7880    -2.2390 h1         1 LXL       0.079700
     52 H20         -5.6970     0.7010    -1.6720 hc         1 LXL       0.050700
     53 H21         -4.8500     2.0820    -2.3550 hc         1 LXL       0.050700
     54 H22         -4.1100     0.6960    -4.3110 hc         1 LXL       0.043200
     55 H23         -4.9720    -0.6960    -3.6580 hc         1 LXL       0.043200
     56 H24         -6.2830     1.9510    -4.5180 hc         1 LXL       0.034033
     57 H25         -6.3240     0.4210    -5.4190 hc         1 LXL       0.034033
     58 H26         -7.1510     0.5480    -3.8520 hc         1 LXL       0.034033
     59 H27         -1.5710     2.4660    -0.9980 ha         1 LXL       0.120000
     60 H28         -1.3080     3.7330     1.1540 ha         1 LXL       0.125000
     61 H29         -2.9280     3.3260     3.0190 h4         1 LXL       0.018100
     62 H30         -5.0140     0.5180     0.7820 h4         1 LXL       0.012100
@<TRIPOS>BOND
     1     1     2 1   
     2     1    33 1   
     3     1    34 1   
     4     1    35 1   
     5     2     3 1   
     6     2    36 1   
     7     2    37 1   
     8     3     4 1   
     9     3    38 1   
    10     4     5 2   
    11     4     6 1   
    12     6     7 1   
    13     6    39 1   
    14     7     8 ar  
    15     7    12 ar  
    16     8     9 ar  
    17     8    10 1   
    18     9    14 ar  
    19     9    40 1   
    20    10    11 1   
    21    11    41 1   
    22    11    42 1   
    23    11    43 1   
    24    12    13 ar  
    25    12    44 1   
    26    13    14 ar  
    27    13    45 1   
    28    14    15 1   
    29    15    16 ar  
    30    15    17 ar  
    31    16    21 ar  
    32    17    18 ar  
    33    18    19 ar  
    34    18    46 1   
    35    19    20 1   
    36    19    21 ar  
    37    20    47 1   
    38    20    48 1   
    39    20    49 1   
    40    21    22 1   
    41    22    23 1   
    42    22    50 1   
    43    23    24 1   
    44    23    27 1   
    45    23    51 1   
    46    24    25 1   
    47    24    52 1   
    48    24    53 1   
    49    25    26 1   
    50    25    54 1   
    51    25    55 1   
    52    26    56 1   
    53    26    57 1   
    54    26    58 1   
    55    27    28 ar  
    56    27    32 ar  
    57    28    29 ar  
    58    28    59 1   
    59    29    30 ar  
    60    29    60 1   
    61    30    31 ar  
    62    30    61 1   
    63    31    32 ar  
    64    32    62 1   
@<TRIPOS>SUBSTRUCTURE
     1 LXL         1 TEMP              0 ****  ****    0 ROOT
