@<TRIPOS>MOLECULE
LXM
   39    42     1     0     0
SMALL
abcg2


@<TRIPOS>ATOM
      1 C4         -16.9250   -19.7150    -1.2600 c5         1 LXM       0.150300
      2 C5         -15.6270   -20.5160    -2.9330 ca         1 LXM       0.130100
      3 C6         -15.1640   -21.3190    -3.9610 ca         1 LXM      -0.143000
      4 C7         -14.1470   -20.8060    -4.7610 ca         1 LXM      -0.071000
      5 C8         -13.6200   -19.5370    -4.5410 ca         1 LXM      -0.155000
      6 C10        -15.1050   -19.2530    -2.6950 ca         1 LXM      -0.191300
      7 C13        -13.0880   -16.9440     2.1200 ca         1 LXM      -0.074500
      8 C15        -11.6010   -18.2450     3.4920 ca         1 LXM      -0.092000
      9 C17        -12.5630   -19.2130     1.5120 ca         1 LXM      -0.074500
     10 N          -14.9720   -18.8010    -0.2720 n          1 LXM      -0.410800
     11 C1         -16.8720   -20.0770     0.2180 c5         1 LXM      -0.091700
     12 C11        -14.0800   -17.8420     0.0320 c          1 LXM       0.622700
     13 C12        -13.2480   -18.0270     1.2590 ca         1 LXM      -0.146600
     14 C14        -12.2800   -17.0590     3.2410 ca         1 LXM      -0.119000
     15 C16        -11.7360   -19.3180     2.6210 ca         1 LXM      -0.119000
     16 C2         -15.3890   -19.9320     0.5480 c5         1 LXM       0.105000
     17 C3         -15.7890   -18.6970    -1.4800 c5         1 LXM       0.136000
     18 C9         -14.0980   -18.7500    -3.4970 ca         1 LXM      -0.031000
     19 O1         -16.6110   -20.8570    -2.0750 os         1 LXM      -0.329100
     20 O2         -13.9380   -16.8430    -0.6630 o          1 LXM      -0.600100
     21 H1         -17.8970   -19.3310    -1.5760 h1         1 LXM       0.096700
     22 H2         -15.5730   -22.3050    -4.1390 ha         1 LXM       0.129000
     23 H3         -13.7640   -21.4090    -5.5740 ha         1 LXM       0.113000
     24 H4         -12.8340   -19.1610    -5.1840 ha         1 LXM       0.117000
     25 H6         -10.9630   -18.3310     4.3620 ha         1 LXM       0.115000
     26 H7         -12.6540   -20.0530     0.8350 ha         1 LXM       0.124000
     27 H10        -19.5730   -18.5830     1.1240 ho         1 LXM       0.448000
     28 H11        -17.2130   -21.1010     0.3890 hc         1 LXM       0.095700
     29 H12        -12.1730   -16.2190     3.9140 ha         1 LXM       0.117000
     30 H13        -11.1970   -20.2380     2.8030 ha         1 LXM       0.117000
     31 H14        -14.8450   -20.8400     0.2760 h1         1 LXM       0.060700
     32 H15        -15.2110   -19.7440     1.6060 h1         1 LXM       0.060700
     33 H16        -16.1520   -17.6770    -1.6110 h1         1 LXM       0.097700
     34 H17        -13.6900   -17.7650    -3.3140 ha         1 LXM       0.134000
     35 C          -17.7140   -19.1280     1.0600 c3         1 LXM       0.165600
     36 H5         -13.6040   -16.0140     1.9200 ha         1 LXM       0.124000
     37 O          -19.0670   -19.2820     0.7000 oh         1 LXM      -0.660000
     38 H8         -17.5480   -19.3660     2.1180 h1         1 LXM       0.026200
     39 H9         -17.3750   -18.0930     0.9140 h1         1 LXM       0.026200
@<TRIPOS>BOND
     1     1    11 1   
     2     1    17 1   
     3     1    19 1   
     4     1    21 1   
     5     2     3 ar  
     6     2     6 ar  
     7     2    19 1   
     8     3     4 ar  
     9     3    22 1   
    10     4     5 ar  
    11     4    23 1   
    12     5    18 ar  
    13     5    24 1   
    14     6    17 1   
    15     6    18 ar  
    16     7    13 ar  
    17     7    14 ar  
    18     7    36 1   
    19     8    14 ar  
    20     8    15 ar  
    21     8    25 1   
    22     9    13 ar  
    23     9    15 ar  
    24     9    26 1   
    25    10    12 1   
    26    10    16 1   
    27    10    17 1   
    28    11    16 1   
    29    11    28 1   
    30    11    35 1   
    31    12    13 1   
    32    12    20 2   
    33    14    29 1   
    34    15    30 1   
    35    16    31 1   
    36    16    32 1   
    37    17    33 1   
    38    18    34 1   
    39    27    37 1   
    40    35    37 1   
    41    35    38 1   
    42    35    39 1   
@<TRIPOS>SUBSTRUCTURE
     1 LXM         1 TEMP              0 ****  ****    0 ROOT
