@<TRIPOS>MOLECULE
LXM
   39    42     1     0     0
SMALL
No Charge or Current Charge


@<TRIPOS>ATOM
      1 C4         -16.9860   -19.8560    -1.3000 c5         1 LXM       0.150300
      2 C5         -15.4630   -20.5840    -2.7720 ca         1 LXM       0.130100
      3 C6         -14.8090   -21.3590    -3.7380 ca         1 LXM      -0.143000
      4 C7         -13.8410   -20.7410    -4.5560 ca         1 LXM      -0.071000
      5 C8         -13.5420   -19.3700    -4.3860 ca         1 LXM      -0.155000
      6 C10        -15.1670   -19.2490    -2.5990 ca         1 LXM      -0.191300
      7 C13        -12.7990   -16.9350     2.0230 ca         1 LXM      -0.074500
      8 C15        -11.3170   -18.4150     3.2660 ca         1 LXM      -0.092000
      9 C17        -12.6310   -19.2820     1.4080 ca         1 LXM      -0.074500
     10 N          -15.1210   -18.7630    -0.2650 n          1 LXM      -0.410800
     11 C1         -17.0550   -20.0470     0.2430 c5         1 LXM      -0.091700
     12 C11        -14.2080   -17.7490     0.0910 c          1 LXM       0.622700
     13 C12        -13.2110   -18.0080     1.2020 ca         1 LXM      -0.146600
     14 C14        -11.8650   -17.1390     3.0540 ca         1 LXM      -0.119000
     15 C16        -11.6960   -19.4830     2.4380 ca         1 LXM      -0.119000
     16 C2         -15.5710   -19.8320     0.6600 c5         1 LXM       0.105000
     17 C3         -15.9680   -18.6720    -1.4740 c5         1 LXM       0.136000
     18 C9         -14.2040   -18.6120    -3.3980 ca         1 LXM      -0.031000
     19 O1         -16.4100   -21.0640    -1.9110 os         1 LXM      -0.329100
     20 O2         -14.1870   -16.6900    -0.5260 o          1 LXM      -0.600100
     21 H1         -17.9580   -19.6470    -1.7670 h1         1 LXM       0.096700
     22 H2         -15.0480   -22.4130    -3.8540 ha         1 LXM       0.129000
     23 H3         -13.3220   -21.3200    -5.3160 ha         1 LXM       0.113000
     24 H4         -12.7920   -18.8980    -5.0160 ha         1 LXM       0.117000
     25 H6         -10.5930   -18.5720     4.0620 ha         1 LXM       0.115000
     26 H7         -12.8760   -20.1150     0.7530 ha         1 LXM       0.124000
     27 H10        -19.9370   -18.6760     1.0280 ho         1 LXM       0.448000
     28 H11        -17.3930   -21.0550     0.5070 hc         1 LXM       0.095700
     29 H12        -11.5650   -16.3070     3.6870 ha         1 LXM       0.117000
     30 H13        -11.2570   -20.4670     2.5880 ha         1 LXM       0.117000
     31 H14        -14.9920   -20.7500     0.4970 h1         1 LXM       0.060700
     32 H15        -15.4760   -19.5460     1.7170 h1         1 LXM       0.060700
     33 H16        -16.4200   -17.6880    -1.6620 h1         1 LXM       0.097700
     34 H17        -13.9690   -17.5600    -3.2540 ha         1 LXM       0.134000
     35 C          -18.0170   -19.0610     0.9480 c3         1 LXM       0.165600
     36 H5         -13.2140   -15.9410     1.8700 ha         1 LXM       0.124000
     37 O          -19.3640   -19.2940     0.5210 oh         1 LXM      -0.660000
     38 H8         -17.9350   -19.2020     2.0350 h1         1 LXM       0.026200
     39 H9         -17.7180   -18.0280     0.7220 h1         1 LXM       0.026200
@<TRIPOS>BOND
     1     1    11 1   
     2     1    17 1   
     3     1    19 1   
     4     1    21 1   
     5     2     3 ar  
     6     2     6 ar  
     7     2    19 1   
     8     3     4 ar  
     9     3    22 1   
    10     4     5 ar  
    11     4    23 1   
    12     5    18 ar  
    13     5    24 1   
    14     6    17 1   
    15     6    18 ar  
    16     7    13 ar  
    17     7    14 ar  
    18     7    36 1   
    19     8    14 ar  
    20     8    15 ar  
    21     8    25 1   
    22     9    13 ar  
    23     9    15 ar  
    24     9    26 1   
    25    10    12 1   
    26    10    16 1   
    27    10    17 1   
    28    11    16 1   
    29    11    28 1   
    30    11    35 1   
    31    12    13 1   
    32    12    20 2   
    33    14    29 1   
    34    15    30 1   
    35    16    31 1   
    36    16    32 1   
    37    17    33 1   
    38    18    34 1   
    39    27    37 1   
    40    35    37 1   
    41    35    38 1   
    42    35    39 1   
@<TRIPOS>SUBSTRUCTURE
     1 LXM         1 TEMP              0 ****  ****    0 ROOT
