@<TRIPOS>MOLECULE
LXN
   12    12     1     0     0
SMALL
No Charge or Current Charge


@<TRIPOS>ATOM
      1 OAB          0.9780    -2.4250     0.0440 o          1 LXN      -0.445000
      2 CAH          0.4710    -1.3110     0.0290 c          1 LXN       0.485000
      3 CAJ          1.3160     0.0120     0.0250 c          1 LXN       0.400100
      4 OAD          2.5490     0.0200     0.0370 o          1 LXN      -0.371100
      5 CAI          0.4550     1.3250     0.0040 c          1 LXN       0.485000
      6 OAC          0.9480     2.4460    -0.0020 o          1 LXN      -0.445000
      7 NAF         -0.9080     1.1470    -0.0090 ns         1 LXN      -0.473500
      8 CAG         -1.6270    -0.0060    -0.0050 c          1 LXN       0.638000
      9 OAA         -2.8420    -0.0130    -0.0170 o          1 LXN      -0.511000
     10 NAE         -0.8940    -1.1500     0.0130 ns         1 LXN      -0.473500
     11 HAE         -1.4350    -2.0030     0.0160 hn         1 LXN       0.356000
     12 HAF         -1.4590     1.9930    -0.0220 hn         1 LXN       0.356000
@<TRIPOS>BOND
     1     1     2 2   
     2     2     3 1   
     3     2    10 1   
     4     3     4 2   
     5     3     5 1   
     6     5     6 2   
     7     5     7 1   
     8     7     8 1   
     9     7    12 1   
    10     8     9 2   
    11     8    10 1   
    12    10    11 1   
@<TRIPOS>SUBSTRUCTURE
     1 LXN         1 TEMP              0 ****  ****    0 ROOT
