@<TRIPOS>MOLECULE
LXN
   12    12     1     0     0
SMALL
bcc


@<TRIPOS>ATOM
      1 OAB          1.0480    -2.3570     0.0520 o          1 LXN      -0.520500
      2 CAH          0.4720    -1.3040     0.0310 c          1 LXN       0.627500
      3 CAJ          1.2400     0.0120     0.0210 c          1 LXN       0.400100
      4 OAD          2.4320     0.0190     0.0260 o          1 LXN      -0.371100
      5 CAI          0.4560     1.3180     0.0060 c          1 LXN       0.627500
      6 OAC          1.0190     2.3790     0.0050 o          1 LXN      -0.520500
      7 NAF         -0.8990     1.1720    -0.0080 ns         1 LXN      -0.607500
      8 CAG         -1.6190    -0.0060    -0.0080 c          1 LXN       0.847500
      9 OAA         -2.8220    -0.0130    -0.0230 o          1 LXN      -0.586500
     10 NAE         -0.8850    -1.1750     0.0130 ns         1 LXN      -0.607500
     11 HAE         -1.4330    -2.0280     0.0170 hn         1 LXN       0.356000
     12 HAF         -1.4580     2.0190    -0.0200 hn         1 LXN       0.356000
@<TRIPOS>BOND
     1     1     2 2   
     2     2     3 1   
     3     2    10 1   
     4     3     4 2   
     5     3     5 1   
     6     5     6 2   
     7     5     7 1   
     8     7     8 1   
     9     7    12 1   
    10     8     9 2   
    11     8    10 1   
    12    10    11 1   
@<TRIPOS>SUBSTRUCTURE
     1 LXN         1 TEMP              0 ****  ****    0 ROOT
