@<TRIPOS>MOLECULE
LXO
   24    24     1     0     0
SMALL
No Charge or Current Charge


@<TRIPOS>ATOM
      1 C24         22.7530    19.8570     6.8390 c          1 LXO       0.719000
      2 C26         21.9950    21.1970     8.8540 c3         1 LXO      -0.075400
      3 C25         23.1360    20.9780     7.8220 c3         1 LXO      -0.214400
      4 C27         22.2300    22.3690     9.8320 c3         1 LXO       0.213800
      5 C29         23.8640    22.9220    11.7220 ca         1 LXO       0.381000
      6 C30         25.1230    22.6580    12.2570 ca         1 LXO      -0.264500
      7 C31         25.6270    23.5060    13.2490 ca         1 LXO       0.364900
      8 C33         23.7260    24.8210    13.1920 ca         1 LXO       0.364900
      9 C34         23.1500    24.0230    12.1980 ca         1 LXO      -0.264500
     10 N28         23.3520    22.0850    10.7380 nu         1 LXO      -0.948200
     11 N32         24.9460    24.5750    13.7150 nb         1 LXO      -0.733000
     12 O35         23.0410    18.7080     7.1360 o          1 LXO      -0.735500
     13 H2          21.0640    21.3980     8.3080 hc         1 LXO       0.054200
     14 H3          21.8260    20.2750     9.4230 hc         1 LXO       0.054200
     15 H4          24.0230    20.6900     8.4000 hc         1 LXO       0.015700
     16 H5          23.2470    21.9310     7.2910 hc         1 LXO       0.015700
     17 H6          22.4280    23.2870     9.2620 h1         1 LXO       0.026700
     18 H7          21.3150    22.5260    10.4190 h1         1 LXO       0.026700
     19 H8          25.7110    21.8120    11.9180 ha         1 LXO       0.118500
     20 H9          26.6080    23.3270    13.6870 h4         1 LXO      -0.001400
     21 H10         23.1960    25.6880    13.5850 h4         1 LXO      -0.001400
     22 H11         22.1650    24.2680    11.8170 ha         1 LXO       0.118500
     23 H12         23.9670    21.3190    10.4610 hn         1 LXO       0.500000
     24 OXT         22.1310    20.1620     5.8330 o          1 LXO      -0.735500
@<TRIPOS>BOND
     1     1     3 1   
     2     1    12 1   
     3     1    24 1   
     4     2     3 1   
     5     2     4 1   
     6     2    13 1   
     7     2    14 1   
     8     3    15 1   
     9     3    16 1   
    10     4    10 1   
    11     4    17 1   
    12     4    18 1   
    13     5     6 ar  
    14     5     9 ar  
    15     5    10 1   
    16     6     7 ar  
    17     6    19 1   
    18     7    11 ar  
    19     7    20 1   
    20     8     9 ar  
    21     8    11 ar  
    22     8    21 1   
    23     9    22 1   
    24    10    23 1   
@<TRIPOS>SUBSTRUCTURE
     1 LXO         1 TEMP              0 ****  ****    0 ROOT
