@<TRIPOS>MOLECULE
LXO
   24    24     1     0     0
SMALL
abcg2


@<TRIPOS>ATOM
      1 C24         22.7190    19.8920     6.8180 c          1 LXO       0.719000
      2 C26         21.9770    21.2190     8.9070 c3         1 LXO      -0.075400
      3 C25         23.0770    20.9460     7.8880 c3         1 LXO      -0.214400
      4 C27         22.2880    22.3530     9.8710 c3         1 LXO       0.213800
      5 C29         23.8830    22.8750    11.6720 ca         1 LXO       0.381000
      6 C30         25.0660    22.5840    12.3790 ca         1 LXO      -0.264500
      7 C31         25.4990    23.4490    13.3590 ca         1 LXO       0.364900
      8 C33         23.7620    24.8510    13.0340 ca         1 LXO       0.364900
      9 C34         23.2280    24.0670    12.0300 ca         1 LXO      -0.264500
     10 N28         23.4120    22.0390    10.7240 nu         1 LXO      -0.948200
     11 N32         24.8750    24.5760    13.7070 nb         1 LXO      -0.733000
     12 O35         23.6700    19.2310     6.3550 o          1 LXO      -0.735500
     13 H2          21.0600    21.4810     8.3790 hc         1 LXO       0.054200
     14 H3          21.7520    20.3130     9.4790 hc         1 LXO       0.054200
     15 H4          24.0070    20.6420     8.3760 hc         1 LXO       0.015700
     16 H5          23.3100    21.8850     7.3690 hc         1 LXO       0.015700
     17 H6          22.4760    23.2730     9.3010 h1         1 LXO       0.026700
     18 H7          21.4090    22.5460    10.4940 h1         1 LXO       0.026700
     19 H8          25.6330    21.6880    12.1580 ha         1 LXO       0.118500
     20 H9          26.4110    23.2170    13.9000 h4         1 LXO      -0.001400
     21 H10         23.2490    25.7670    13.3090 h4         1 LXO      -0.001400
     22 H11         22.3180    24.3830    11.5390 ha         1 LXO       0.118500
     23 H12         24.0240    21.2960    10.4270 hn         1 LXO       0.500000
     24 OXT         21.5200    19.8070     6.4830 o          1 LXO      -0.735500
@<TRIPOS>BOND
     1     1     3 1   
     2     1    12 1   
     3     1    24 1   
     4     2     3 1   
     5     2     4 1   
     6     2    13 1   
     7     2    14 1   
     8     3    15 1   
     9     3    16 1   
    10     4    10 1   
    11     4    17 1   
    12     4    18 1   
    13     5     6 ar  
    14     5     9 ar  
    15     5    10 1   
    16     6     7 ar  
    17     6    19 1   
    18     7    11 ar  
    19     7    20 1   
    20     8     9 ar  
    21     8    11 ar  
    22     8    21 1   
    23     9    22 1   
    24    10    23 1   
@<TRIPOS>SUBSTRUCTURE
     1 LXO         1 TEMP              0 ****  ****    0 ROOT
