@<TRIPOS>MOLECULE
LXQ
   21    21     1     0     0
SMALL
abcg2


@<TRIPOS>ATOM
      1 C02         16.2640    -4.9490    -9.6480 c          1 LXQ       0.596100
      2 C03         16.7530    -4.8140    -8.2250 c3         1 LXQ      -0.173100
      3 C05         16.6050    -4.3170   -11.9910 c5         1 LXQ       0.091000
      4 C06         17.5030    -3.2530   -12.6090 c5         1 LXQ      -0.070400
      5 C07         18.7540    -3.2920   -11.7370 c5         1 LXQ      -0.205700
      6 C08         19.7000    -2.0860   -11.8540 c          1 LXQ       0.728000
      7 C11         18.1880    -3.5210   -10.3380 c5         1 LXQ       0.116000
      8 N04         16.9820    -4.3060   -10.5820 n          1 LXQ      -0.407800
      9 O01         15.2700    -5.6100    -9.9330 o          1 LXQ      -0.659100
     10 O09         20.3330    -1.7770   -10.8230 o          1 LXQ      -0.729500
     11 O10         19.7770    -1.5450   -12.9740 o          1 LXQ      -0.729500
     12 H1          16.0550    -5.3030    -7.5500 hc         1 LXQ       0.051033
     13 H2          17.7330    -5.2770    -8.1010 hc         1 LXQ       0.051033
     14 H3          16.8520    -3.7690    -7.9290 hc         1 LXQ       0.051033
     15 H4          15.5430    -4.1020   -12.1150 h1         1 LXQ       0.033200
     16 H5          16.7930    -5.3020   -12.4300 h1         1 LXQ       0.033200
     17 H6          17.7040    -3.4500   -13.6600 hc         1 LXQ       0.049700
     18 H7          17.0240    -2.2720   -12.5430 hc         1 LXQ       0.049700
     19 H8          19.3300    -4.1850   -12.0150 hc         1 LXQ       0.035700
     20 H9          18.8850    -4.0520    -9.6910 h1         1 LXQ       0.044700
     21 H10         17.9440    -2.5710    -9.8520 h1         1 LXQ       0.044700
@<TRIPOS>BOND
     1     1     2 1   
     2     1     8 1   
     3     1     9 2   
     4     2    12 1   
     5     2    13 1   
     6     2    14 1   
     7     3     4 1   
     8     3     8 1   
     9     3    15 1   
    10     3    16 1   
    11     4     5 1   
    12     4    17 1   
    13     4    18 1   
    14     5     6 1   
    15     5     7 1   
    16     5    19 1   
    17     6    10 1   
    18     6    11 1   
    19     7     8 1   
    20     7    20 1   
    21     7    21 1   
@<TRIPOS>SUBSTRUCTURE
     1 LXQ         1 TEMP              0 ****  ****    0 ROOT
