@<TRIPOS>MOLECULE
LXQ
   21    21     1     0     0
SMALL
No Charge or Current Charge


@<TRIPOS>ATOM
      1 C02         16.2820    -4.9840    -9.5840 c          1 LXQ       0.596100
      2 C03         16.8580    -4.9870    -8.1650 c3         1 LXQ      -0.173100
      3 C05         16.5000    -4.2130   -11.9890 c5         1 LXQ       0.091000
      4 C06         17.3870    -3.0790   -12.5670 c5         1 LXQ      -0.070400
      5 C07         18.7290    -3.3410   -11.8290 c5         1 LXQ      -0.205700
      6 C08         19.6930    -2.1300   -11.9060 c          1 LXQ       0.728000
      7 C11         18.2510    -3.5640   -10.3710 c5         1 LXQ       0.116000
      8 N04         16.9860    -4.3000   -10.5950 n          1 LXQ      -0.407800
      9 O01         15.2320    -5.5650    -9.8320 o          1 LXQ      -0.659100
     10 O09         19.3230    -1.0320   -11.5170 o          1 LXQ      -0.729500
     11 O10         20.8110    -2.3080   -12.3630 o          1 LXQ      -0.729500
     12 H1          16.2130    -5.5080    -7.4490 hc         1 LXQ       0.051033
     13 H2          17.8600    -5.4290    -8.1860 hc         1 LXQ       0.051033
     14 H3          17.0590    -3.9570    -7.8510 hc         1 LXQ       0.051033
     15 H4          15.4320    -3.9650   -12.0460 h1         1 LXQ       0.033200
     16 H5          16.6690    -5.1630   -12.5140 h1         1 LXQ       0.033200
     17 H6          17.4790    -3.1320   -13.6580 hc         1 LXQ       0.049700
     18 H7          16.9680    -2.0970   -12.3180 hc         1 LXQ       0.049700
     19 H8          19.2260    -4.2370   -12.2210 hc         1 LXQ       0.035700
     20 H9          18.9820    -4.1430    -9.7920 h1         1 LXQ       0.044700
     21 H10         18.0530    -2.6200    -9.8460 h1         1 LXQ       0.044700
@<TRIPOS>BOND
     1     1     2 1   
     2     1     8 1   
     3     1     9 2   
     4     2    12 1   
     5     2    13 1   
     6     2    14 1   
     7     3     4 1   
     8     3     8 1   
     9     3    15 1   
    10     3    16 1   
    11     4     5 1   
    12     4    17 1   
    13     4    18 1   
    14     5     6 1   
    15     5     7 1   
    16     5    19 1   
    17     6    10 1   
    18     6    11 1   
    19     7     8 1   
    20     7    20 1   
    21     7    21 1   
@<TRIPOS>SUBSTRUCTURE
     1 LXQ         1 TEMP              0 ****  ****    0 ROOT
