@<TRIPOS>MOLECULE
LXR
   44    47     1     0     0
SMALL
No Charge or Current Charge


@<TRIPOS>ATOM
      1 C10         13.1440    11.6710    42.0850 cc         1 LXR       0.442700
      2 C13         16.5420     8.7710    42.9180 cc         1 LXR       0.627400
      3 C11         16.3740     9.0670    40.7490 cc         1 LXR      -0.204000
      4 C12         15.1970     8.6030    41.2870 cd         1 LXR       0.209900
      5 N8          17.0190     8.6960    44.1590 nv         1 LXR      -1.061900
      6 N9          15.3210     8.4080    42.6500 nd         1 LXR      -0.775000
      7 N6          17.2460     9.1490    41.8210 na         1 LXR      -0.203000
      8 P1          18.9940     9.6790    41.8430 p5         1 LXR       1.262900
      9 O2          19.6450     9.2510    43.1210 o          1 LXR      -0.801000
     10 O1          19.6830     9.1220    40.6380 o          1 LXR      -0.801000
     11 O3          18.9310    11.2900    41.7430 os         1 LXR      -0.575400
     12 C2          17.1410    12.9240    42.0470 c5         1 LXR       0.123300
     13 O4          16.2800    12.1350    41.2020 os         1 LXR      -0.411000
     14 C3          16.1320    13.6160    43.0080 c5         1 LXR       0.088300
     15 O5          16.6860    14.7390    43.7230 oh         1 LXR      -0.723000
     16 C4          15.0700    14.0910    41.9730 c5         1 LXR       0.135300
     17 O6          15.5250    15.3310    41.4140 oh         1 LXR      -0.709000
     18 C5          15.0760    12.8930    40.9430 c5         1 LXR       0.312300
     19 N5          13.9430    11.9670    40.9740 na         1 LXR      -0.302300
     20 N4          12.1380    10.8370    41.7590 nd         1 LXR      -0.550100
     21 C8          12.3480    10.5960    40.3980 ca         1 LXR      -0.091600
     22 C7          13.4400    11.2700    39.9130 ca         1 LXR       0.112500
     23 N3          13.8350    11.1710    38.6280 nb         1 LXR      -0.216000
     24 C6          13.0830    10.3600    37.8450 ca         1 LXR       0.164900
     25 N1          11.9900     9.6530    38.2230 nb         1 LXR      -0.316000
     26 C9          11.6220     9.7780    39.5070 ca         1 LXR       0.443900
     27 N7          10.5280     9.0650    39.8870 nv         1 LXR      -1.071900
     28 H1          13.3320    12.0860    43.0690 h5         1 LXR       0.094800
     29 H4          16.5100     8.0870    44.7880 hn         1 LXR       0.471000
     30 H5          18.0350     8.7070    44.2440 hn         1 LXR       0.471000
     31 H9          17.6550    13.6660    41.4190 h1         1 LXR       0.081700
     32 H10         15.6940    12.8850    43.7040 h1         1 LXR       0.053700
     33 H11         16.9660    14.4220    44.6170 ho         1 LXR       0.521000
     34 H12         14.0860    14.2270    42.4410 h1         1 LXR       0.064700
     35 H13         16.1170    15.6740    42.1330 ho         1 LXR       0.523000
     36 H14         15.1050    13.2990    39.9240 h2         1 LXR       0.118700
     37 H15         13.3890    10.2670    36.8050 h5         1 LXR       0.035100
     38 H16         10.2380     8.2900    39.2970 hn         1 LXR       0.501500
     39 H17         10.3660     8.9660    40.8860 hn         1 LXR       0.501500
     40 H2          16.6440     9.3310    39.7350 h4         1 LXR       0.163000
     41 C1          18.2270    12.0540    42.7370 c3         1 LXR       0.223600
     42 H3          14.2710     8.3940    40.7660 h4         1 LXR       0.009100
     43 H7          18.9230    12.7120    43.2730 h1         1 LXR       0.028200
     44 H8          17.7440    11.4050    43.4790 h1         1 LXR       0.028200
@<TRIPOS>BOND
     1     1    19 1   
     2     1    20 2   
     3     1    28 1   
     4     2     5 1   
     5     2     6 2   
     6     2     7 1   
     7     3     4 2   
     8     3     7 1   
     9     3    40 1   
    10     4     6 1   
    11     4    42 1   
    12     5    29 1   
    13     5    30 1   
    14     7     8 1   
    15     8     9 1   
    16     8    10 1   
    17     8    11 1   
    18    11    41 1   
    19    12    13 1   
    20    12    14 1   
    21    12    31 1   
    22    12    41 1   
    23    13    18 1   
    24    14    15 1   
    25    14    16 1   
    26    14    32 1   
    27    15    33 1   
    28    16    17 1   
    29    16    18 1   
    30    16    34 1   
    31    17    35 1   
    32    18    19 1   
    33    18    36 1   
    34    19    22 1   
    35    20    21 1   
    36    21    22 ar  
    37    21    26 ar  
    38    22    23 ar  
    39    23    24 ar  
    40    24    25 ar  
    41    24    37 1   
    42    25    26 ar  
    43    26    27 1   
    44    27    38 1   
    45    27    39 1   
    46    41    43 1   
    47    41    44 1   
@<TRIPOS>SUBSTRUCTURE
     1 LXR         1 TEMP              0 ****  ****    0 ROOT
