@<TRIPOS>MOLECULE
LXR
   44    47     1     0     0
SMALL
abcg2


@<TRIPOS>ATOM
      1 C10         14.1950    10.7340    41.4840 cc         1 LXR       0.442700
      2 C13         16.7870     8.4570    43.3360 cc         1 LXR       0.627400
      3 C11         17.3430     8.3470    41.2110 cc         1 LXR      -0.204000
      4 C12         16.1760     7.7010    41.4360 cd         1 LXR       0.209900
      5 N8          16.7990     8.8300    44.6530 nv         1 LXR      -1.061900
      6 N9          15.8280     7.7710    42.7660 nd         1 LXR      -0.775000
      7 N6          17.7520     8.8380    42.4470 na         1 LXR      -0.203000
      8 P1          19.2280     9.7510    42.7030 p5         1 LXR       1.262900
      9 O2          19.4450     9.7840    44.1830 o          1 LXR      -0.801000
     10 O1          20.2300     9.2480    41.7260 o          1 LXR      -0.801000
     11 O3          18.7660    11.2220    42.1590 os         1 LXR      -0.575400
     12 C2          17.1030    12.9030    41.8800 c5         1 LXR       0.123300
     13 O4          16.5420    12.1850    40.7850 os         1 LXR      -0.411000
     14 C3          15.9160    13.6540    42.4930 c5         1 LXR       0.088300
     15 O5          16.2460    14.8200    43.1880 oh         1 LXR      -0.723000
     16 C4          15.0960    13.9880    41.2490 c5         1 LXR       0.135300
     17 O6          15.6430    15.0690    40.5440 oh         1 LXR      -0.709000
     18 C5          15.3200    12.7380    40.3940 c5         1 LXR       0.312300
     19 N5          14.2750    11.7430    40.5630 na         1 LXR      -0.302300
     20 N4          13.1200    10.0120    41.3670 nd         1 LXR      -0.550100
     21 C8          12.4470    10.5710    40.3120 ca         1 LXR      -0.091600
     22 C7          13.1490    11.6480    39.7970 ca         1 LXR       0.112500
     23 N3          12.7890    12.4130    38.7680 nb         1 LXR      -0.216000
     24 C6          11.6370    12.0220    38.2520 ca         1 LXR       0.164900
     25 N1          10.8560    11.0160    38.6370 nb         1 LXR      -0.316000
     26 C9          11.2310    10.2590    39.6750 ca         1 LXR       0.443900
     27 N7          10.4470     9.2550    40.0710 nv         1 LXR      -1.071900
     28 H1          14.9670    10.5630    42.2190 h5         1 LXR       0.094800
     29 H4          16.2610     8.2230    45.2500 hn         1 LXR       0.471000
     30 H5          17.7150     9.0570    45.0150 hn         1 LXR       0.471000
     31 H9          17.8430    13.6220    41.5070 h1         1 LXR       0.081700
     32 H10         15.3350    12.9610    43.1200 h1         1 LXR       0.053700
     33 H11         16.5900    14.5890    44.0560 ho         1 LXR       0.521000
     34 H12         14.0340    14.1410    41.4740 h1         1 LXR       0.064700
     35 H13         15.7540    15.8090    41.1510 ho         1 LXR       0.523000
     36 H14         15.3270    12.9980    39.3310 h2         1 LXR       0.118700
     37 H15         11.2750    12.5930    37.4040 h5         1 LXR       0.035100
     38 H16          9.6160     9.0250    39.5540 hn         1 LXR       0.501500
     39 H17         10.7340     8.6340    40.8070 hn         1 LXR       0.501500
     40 H2          17.9250     8.4960    40.3180 h4         1 LXR       0.163000
     41 C1          17.7590    11.9410    42.8390 c3         1 LXR       0.223600
     42 H3          15.5580     7.1840    40.7180 h4         1 LXR       0.009100
     43 H7          18.1810    12.5130    43.6720 h1         1 LXR       0.028200
     44 H8          16.9960    11.2770    43.2630 h1         1 LXR       0.028200
@<TRIPOS>BOND
     1     1    19 1   
     2     1    20 2   
     3     1    28 1   
     4     2     5 1   
     5     2     6 2   
     6     2     7 1   
     7     3     4 2   
     8     3     7 1   
     9     3    40 1   
    10     4     6 1   
    11     4    42 1   
    12     5    29 1   
    13     5    30 1   
    14     7     8 1   
    15     8     9 1   
    16     8    10 1   
    17     8    11 1   
    18    11    41 1   
    19    12    13 1   
    20    12    14 1   
    21    12    31 1   
    22    12    41 1   
    23    13    18 1   
    24    14    15 1   
    25    14    16 1   
    26    14    32 1   
    27    15    33 1   
    28    16    17 1   
    29    16    18 1   
    30    16    34 1   
    31    17    35 1   
    32    18    19 1   
    33    18    36 1   
    34    19    22 1   
    35    20    21 1   
    36    21    22 ar  
    37    21    26 ar  
    38    22    23 ar  
    39    23    24 ar  
    40    24    25 ar  
    41    24    37 1   
    42    25    26 ar  
    43    26    27 1   
    44    27    38 1   
    45    27    39 1   
    46    41    43 1   
    47    41    44 1   
@<TRIPOS>SUBSTRUCTURE
     1 LXR         1 TEMP              0 ****  ****    0 ROOT
