@<TRIPOS>MOLECULE
LXS
   37    40     1     0     0
SMALL
No Charge or Current Charge


@<TRIPOS>ATOM
      1 N1          -3.7540   -32.6560   -16.4170 n          1 LXS      -0.415800
      2 C4          -4.7030   -33.7650   -16.7830 c5         1 LXS       0.065700
      3 C5          -6.2170   -33.4840   -16.3340 c5         1 LXS       0.133300
      4 C6          -6.9480   -33.5470   -17.7330 c5         1 LXS       0.203600
      5 C7          -4.8400   -33.8020   -18.3540 c5         1 LXS       0.181600
      6 C8          -5.2470   -32.4090   -18.7990 ca         1 LXS      -0.118300
      7 C10         -5.2230   -30.1810   -19.7100 ca         1 LXS      -0.105000
      8 C13         -6.5540   -32.2510   -18.4110 ca         1 LXS      -0.136300
      9 N           -1.8850   -31.5030   -16.1200 n          1 LXS      -0.384400
     10 C            0.1040   -30.6250   -17.3650 c3         1 LXS      -0.114100
     11 C1          -0.4390   -31.2180   -16.0530 c3         1 LXS       0.117000
     12 C11         -6.5720   -30.0170   -19.3080 ca         1 LXS      -0.111000
     13 C12         -7.2560   -31.0620   -18.6490 ca         1 LXS      -0.079000
     14 C14         -2.3760   -32.7350   -16.5070 c          1 LXS       0.611000
     15 C2          -2.8490   -30.5730   -15.7210 c          1 LXS       0.560000
     16 C3          -4.1890   -31.3300   -15.9070 c5         1 LXS       0.003000
     17 C9          -4.5430   -31.3920   -19.4580 ca         1 LXS      -0.081000
     18 O1          -6.6860   -34.4900   -15.4200 oh         1 LXS      -0.695000
     19 O2          -6.1110   -34.4870   -18.4550 os         1 LXS      -0.407000
     20 O3          -1.7300   -33.7030   -16.8750 o          1 LXS      -0.546000
     21 H1          -4.3450   -34.7340   -16.4100 h1         1 LXS       0.096700
     22 H2          -6.3790   -32.4940   -15.8910 h1         1 LXS       0.050700
     23 H3          -8.0160   -33.8050   -17.7370 h1         1 LXS       0.117700
     24 H4          -4.0310   -34.2860   -18.9180 h1         1 LXS       0.123700
     25 H5          -4.7070   -29.3680   -20.2170 ha         1 LXS       0.119000
     26 H6           1.1790   -30.4280   -17.2780 hc         1 LXS       0.045700
     27 H7          -0.0540   -31.3210   -18.1970 hc         1 LXS       0.045700
     28 H8          -0.4030   -29.6810   -17.6010 hc         1 LXS       0.045700
     29 H9           0.1030   -32.1440   -15.8240 h1         1 LXS       0.066200
     30 H10         -0.2440   -30.5160   -15.2310 h1         1 LXS       0.066200
     31 H11         -7.0850   -29.0790   -19.5090 ha         1 LXS       0.118000
     32 H12         -8.2910   -30.9460   -18.3340 ha         1 LXS       0.121000
     33 H13         -4.8130   -30.7810   -16.6230 h1         1 LXS       0.084700
     34 H14         -4.6890   -31.3970   -14.9330 h1         1 LXS       0.084700
     35 H15         -3.5060   -31.5280   -19.7560 ha         1 LXS       0.125000
     36 H16         -6.2100   -34.3530   -14.5680 ho         1 LXS       0.509000
     37 O           -2.6380   -29.4360   -15.3210 o          1 LXS      -0.504000
@<TRIPOS>BOND
     1     1     2 1   
     2     1    14 1   
     3     1    16 1   
     4     2     3 1   
     5     2     5 1   
     6     2    21 1   
     7     3     4 1   
     8     3    18 1   
     9     3    22 1   
    10     4     8 1   
    11     4    19 1   
    12     4    23 1   
    13     5     6 1   
    14     5    19 1   
    15     5    24 1   
    16     6     8 ar  
    17     6    17 ar  
    18     7    12 ar  
    19     7    17 ar  
    20     7    25 1   
    21     8    13 ar  
    22     9    11 1   
    23     9    14 1   
    24     9    15 1   
    25    10    11 1   
    26    10    26 1   
    27    10    27 1   
    28    10    28 1   
    29    11    29 1   
    30    11    30 1   
    31    12    13 ar  
    32    12    31 1   
    33    13    32 1   
    34    14    20 2   
    35    15    16 1   
    36    15    37 2   
    37    16    33 1   
    38    16    34 1   
    39    17    35 1   
    40    18    36 1   
@<TRIPOS>SUBSTRUCTURE
     1 LXS         1 TEMP              0 ****  ****    0 ROOT
