@<TRIPOS>MOLECULE
LXS
   37    40     1     0     0
SMALL
abcg2


@<TRIPOS>ATOM
      1 N1          -3.8470   -32.6240   -16.2760 n          1 LXS      -0.415800
      2 C4          -4.7100   -33.6940   -16.7210 c5         1 LXS       0.065700
      3 C5          -6.2130   -33.5300   -16.3480 c5         1 LXS       0.133300
      4 C6          -6.8440   -33.5150   -17.7550 c5         1 LXS       0.203600
      5 C7          -4.7920   -33.8110   -18.2750 c5         1 LXS       0.181600
      6 C8          -5.0980   -32.4230   -18.7730 ca         1 LXS      -0.118300
      7 C10         -4.9680   -30.1860   -19.5550 ca         1 LXS      -0.105000
      8 C13         -6.4290   -32.2240   -18.4160 ca         1 LXS      -0.136300
      9 N           -1.9710   -31.4570   -16.0870 n          1 LXS      -0.384400
     10 C           -0.1780   -30.6850   -17.5980 c3         1 LXS      -0.114100
     11 C1          -0.5600   -31.1420   -16.2000 c3         1 LXS       0.117000
     12 C11         -6.2980   -29.9870   -19.2020 ca         1 LXS      -0.111000
     13 C12         -7.0470   -31.0080   -18.6140 ca         1 LXS      -0.079000
     14 C14         -2.5100   -32.6870   -16.4610 c          1 LXS       0.611000
     15 C2          -2.9410   -30.5790   -15.7090 c          1 LXS       0.560000
     16 C3          -4.2530   -31.3240   -15.8010 c5         1 LXS       0.003000
     17 C9          -4.3440   -31.4140   -19.3320 ca         1 LXS      -0.081000
     18 O1          -6.7230   -34.6340   -15.6520 oh         1 LXS      -0.695000
     19 O2          -6.0370   -34.4680   -18.4420 os         1 LXS      -0.407000
     20 O3          -1.8690   -33.6270   -16.8790 o          1 LXS      -0.546000
     21 H1          -4.3440   -34.6350   -16.3060 h1         1 LXS       0.096700
     22 H2          -6.4230   -32.5990   -15.8120 h1         1 LXS       0.050700
     23 H3          -7.9010   -33.7750   -17.7840 h1         1 LXS       0.117700
     24 H4          -3.9780   -34.3580   -18.7470 h1         1 LXS       0.123700
     25 H5          -4.4110   -29.3770   -20.0080 ha         1 LXS       0.119000
     26 H6           0.8810   -30.4310   -17.6250 hc         1 LXS       0.045700
     27 H7          -0.3530   -31.4690   -18.3340 hc         1 LXS       0.045700
     28 H8          -0.7430   -29.8000   -17.8920 hc         1 LXS       0.045700
     29 H9           0.0060   -32.0270   -15.9140 h1         1 LXS       0.066200
     30 H10         -0.3390   -30.3690   -15.4670 h1         1 LXS       0.066200
     31 H11         -6.7580   -29.0240   -19.3860 ha         1 LXS       0.118000
     32 H12         -8.0760   -30.8380   -18.3220 ha         1 LXS       0.121000
     33 H13         -4.9280   -30.8010   -16.4850 h1         1 LXS       0.084700
     34 H14         -4.7270   -31.3630   -14.8180 h1         1 LXS       0.084700
     35 H15         -3.3040   -31.5620   -19.5960 ha         1 LXS       0.125000
     36 H16         -6.3380   -34.6480   -14.7710 ho         1 LXS       0.509000
     37 O           -2.7790   -29.4320   -15.3650 o          1 LXS      -0.504000
@<TRIPOS>BOND
     1     1     2 1   
     2     1    14 1   
     3     1    16 1   
     4     2     3 1   
     5     2     5 1   
     6     2    21 1   
     7     3     4 1   
     8     3    18 1   
     9     3    22 1   
    10     4     8 1   
    11     4    19 1   
    12     4    23 1   
    13     5     6 1   
    14     5    19 1   
    15     5    24 1   
    16     6     8 ar  
    17     6    17 ar  
    18     7    12 ar  
    19     7    17 ar  
    20     7    25 1   
    21     8    13 ar  
    22     9    11 1   
    23     9    14 1   
    24     9    15 1   
    25    10    11 1   
    26    10    26 1   
    27    10    27 1   
    28    10    28 1   
    29    11    29 1   
    30    11    30 1   
    31    12    13 ar  
    32    12    31 1   
    33    13    32 1   
    34    14    20 2   
    35    15    16 1   
    36    15    37 2   
    37    16    33 1   
    38    16    34 1   
    39    17    35 1   
    40    18    36 1   
@<TRIPOS>SUBSTRUCTURE
     1 LXS         1 TEMP              0 ****  ****    0 ROOT
