@<TRIPOS>MOLECULE
LXT
   89    92     1     0     0
SMALL
No Charge or Current Charge


@<TRIPOS>ATOM
      1 C1           9.2950  -137.1930    19.4180 c3         1 LXT       0.039700
      2 N2           9.7150  -136.9740    20.8180 ns         1 LXT      -0.507900
      3 C3           8.1640  -136.2070    19.0360 c3         1 LXT      -0.075400
      4 C4          10.5450  -137.0500    18.5030 c          1 LXT       0.571100
      5 N5          10.6840  -138.0230    17.5340 ns         1 LXT      -0.486900
      6 O6          11.3600  -136.1450    18.6320 o          1 LXT      -0.626100
      7 C7          11.9060  -138.2080    16.7050 c3         1 LXT       0.025700
      8 C8          12.5360  -139.5930    17.0200 c3         1 LXT      -0.075400
      9 C9          11.6220  -137.9850    15.1860 c          1 LXT       0.584100
     10 O10         12.4560  -138.1780    14.3120 o          1 LXT      -0.611100
     11 N11         10.3460  -137.5730    14.8770 ns         1 LXT      -0.497900
     12 C12          9.8430  -137.3210    13.5330 c3         1 LXT       0.145300
     13 C13          8.3940  -136.8670    13.5970 ca         1 LXT      -0.121300
     14 C14          8.0560  -135.5190    13.3710 ca         1 LXT      -0.095500
     15 C15          6.7150  -135.1030    13.4430 ca         1 LXT      -0.116500
     16 C16          5.6990  -136.0270    13.7500 ca         1 LXT      -0.065300
     17 C17          6.0380  -137.3730    13.9830 ca         1 LXT      -0.116500
     18 C18          7.3770  -137.7910    13.9060 ca         1 LXT      -0.095500
     19 C19          4.2470  -135.5830    13.8250 c3         1 LXT      -0.050800
     20 C20         14.0720  -139.6520    16.8460 c3         1 LXT      -0.029100
     21 C21         14.8080  -138.7110    17.7970 ca         1 LXT      -0.088300
     22 C22         15.5000  -137.5900    17.2970 ca         1 LXT      -0.110500
     23 C23         16.1630  -136.7150    18.1750 ca         1 LXT      -0.109500
     24 C24         16.1400  -136.9550    19.5590 ca         1 LXT      -0.112000
     25 C25         15.4540  -138.0710    20.0650 ca         1 LXT      -0.109500
     26 C26         14.7920  -138.9470    19.1870 ca         1 LXT      -0.110500
     27 C27          7.6070  -136.3890    17.6040 c3         1 LXT      -0.030100
     28 C28          6.4550  -135.4340    17.3230 ca         1 LXT      -0.079300
     29 C29          5.1350  -135.7950    17.6580 ca         1 LXT      -0.104500
     30 C30          4.0740  -134.9050    17.4160 ca         1 LXT      -0.113000
     31 C31          4.3260  -133.6510    16.8350 ca         1 LXT      -0.112000
     32 C32          5.6400  -133.2870    16.4970 ca         1 LXT      -0.113000
     33 C33          6.7020  -134.1760    16.7420 ca         1 LXT      -0.104500
     34 C34         10.3430  -137.9340    21.5850 c          1 LXT       0.593100
     35 O35         10.4280  -139.0980    21.2080 o          1 LXT      -0.594100
     36 C36         10.9570  -137.4180    22.9390 c3         1 LXT       0.095500
     37 C37         12.4980  -137.5930    22.9120 c3         1 LXT      -0.071400
     38 N38         10.3690  -138.0090    24.1880 n8         1 LXT      -0.982200
     39 C41         13.2610  -136.8470    24.0320 c3         1 LXT      -0.030100
     40 C42         14.7700  -136.9460    23.8470 ca         1 LXT      -0.083300
     41 C43         15.4490  -138.1330    24.1840 ca         1 LXT      -0.106000
     42 C44         16.8390  -138.2320    23.9990 ca         1 LXT      -0.109000
     43 C45         17.5590  -137.1440    23.4790 ca         1 LXT      -0.112000
     44 C46         16.8880  -135.9570    23.1420 ca         1 LXT      -0.109000
     45 C47         15.4970  -135.8580    23.3230 ca         1 LXT      -0.106000
     46 H1           8.9140  -138.2180    19.3210 h1         1 LXT       0.083700
     47 HN2          9.7000  -136.0300    21.1880 hn         1 LXT       0.323500
     48 H3           7.3390  -136.3270    19.7500 hc         1 LXT       0.060200
     49 H3A          8.5270  -135.1770    19.1470 hc         1 LXT       0.060200
     50 HN5          9.9900  -138.7640    17.5340 hn         1 LXT       0.342500
     51 H7          12.6240  -137.4280    16.9840 h1         1 LXT       0.086700
     52 H8          12.3060  -139.8660    18.0570 hc         1 LXT       0.062200
     53 H8A         12.0640  -140.3590    16.3920 hc         1 LXT       0.062200
     54 HN11         9.7220  -137.4170    15.6570 hn         1 LXT       0.340500
     55 H12         10.4640  -136.5530    13.0530 h1         1 LXT       0.065200
     56 H12A         9.9180  -138.2440    12.9410 h1         1 LXT       0.065200
     57 H14          8.8310  -134.7910    13.1390 ha         1 LXT       0.116500
     58 H15          6.4670  -134.0590    13.2640 ha         1 LXT       0.110500
     59 H17          5.2620  -138.0960    14.2220 ha         1 LXT       0.110500
     60 H18          7.6250  -138.8340    14.0890 ha         1 LXT       0.116500
     61 H19          3.7100  -135.8500    12.9070 hc         1 LXT       0.044700
     62 H19A         3.7310  -136.0600    14.6660 hc         1 LXT       0.044700
     63 H19B         4.1620  -134.4980    13.9580 hc         1 LXT       0.044700
     64 H20         14.4040  -140.6820    17.0270 hc         1 LXT       0.059700
     65 H20A        14.3330  -139.4340    15.8040 hc         1 LXT       0.059700
     66 H22         15.5200  -137.3910    16.2270 ha         1 LXT       0.112000
     67 H23         16.6930  -135.8500    17.7830 ha         1 LXT       0.115500
     68 H24         16.6520  -136.2770    20.2380 ha         1 LXT       0.110000
     69 H25         15.4370  -138.2580    21.1370 ha         1 LXT       0.115500
     70 H26         14.2640  -139.8090    19.5890 ha         1 LXT       0.112000
     71 H27          8.4070  -136.2240    16.8730 hc         1 LXT       0.056200
     72 H27A         7.2750  -137.4270    17.4700 hc         1 LXT       0.056200
     73 H29          4.9320  -136.7630    18.1100 ha         1 LXT       0.115000
     74 H30          3.0570  -135.1890    17.6770 ha         1 LXT       0.112500
     75 H31          3.5050  -132.9630    16.6460 ha         1 LXT       0.112000
     76 H32          5.8370  -132.3170    16.0450 ha         1 LXT       0.112500
     77 H33          7.7160  -133.8850    16.4780 ha         1 LXT       0.115000
     78 H36         10.7530  -136.3390    22.9820 h1         1 LXT       0.021700
     79 H37         12.7460  -138.6610    22.9490 hc         1 LXT       0.061700
     80 H37A        12.8690  -137.2240    21.9470 hc         1 LXT       0.061700
     81 HN38        10.7670  -137.5370    25.0090 hn         1 LXT       0.405000
     82 HN3A         9.3680  -137.7780    24.2400 hn         1 LXT       0.405000
     83 H41         12.9480  -135.7960    24.0430 hc         1 LXT       0.046200
     84 H41A        12.9810  -137.2620    25.0080 hc         1 LXT       0.046200
     85 H43         14.8990  -138.9810    24.5860 ha         1 LXT       0.112000
     86 H44         17.3580  -139.1530    24.2600 ha         1 LXT       0.114500
     87 H45         18.6350  -137.2210    23.3360 ha         1 LXT       0.114000
     88 H46         17.4440  -135.1130    22.7380 ha         1 LXT       0.114500
     89 H47         14.9860  -134.9370    23.0530 ha         1 LXT       0.112000
@<TRIPOS>BOND
     1     1     2 1   
     2     1     3 1   
     3     1     4 1   
     4     1    46 1   
     5     2    34 1   
     6     2    47 1   
     7     3    27 1   
     8     3    48 1   
     9     3    49 1   
    10     4     5 1   
    11     4     6 2   
    12     5     7 1   
    13     5    50 1   
    14     7     8 1   
    15     7     9 1   
    16     7    51 1   
    17     8    20 1   
    18     8    52 1   
    19     8    53 1   
    20     9    10 2   
    21     9    11 1   
    22    11    12 1   
    23    11    54 1   
    24    12    13 1   
    25    12    55 1   
    26    12    56 1   
    27    13    14 ar  
    28    13    18 ar  
    29    14    15 ar  
    30    14    57 1   
    31    15    16 ar  
    32    15    58 1   
    33    16    17 ar  
    34    16    19 1   
    35    17    18 ar  
    36    17    59 1   
    37    18    60 1   
    38    19    61 1   
    39    19    62 1   
    40    19    63 1   
    41    20    21 1   
    42    20    64 1   
    43    20    65 1   
    44    21    22 ar  
    45    21    26 ar  
    46    22    23 ar  
    47    22    66 1   
    48    23    24 ar  
    49    23    67 1   
    50    24    25 ar  
    51    24    68 1   
    52    25    26 ar  
    53    25    69 1   
    54    26    70 1   
    55    27    28 1   
    56    27    71 1   
    57    27    72 1   
    58    28    29 ar  
    59    28    33 ar  
    60    29    30 ar  
    61    29    73 1   
    62    30    31 ar  
    63    30    74 1   
    64    31    32 ar  
    65    31    75 1   
    66    32    33 ar  
    67    32    76 1   
    68    33    77 1   
    69    34    35 2   
    70    34    36 1   
    71    36    37 1   
    72    36    38 1   
    73    36    78 1   
    74    37    39 1   
    75    37    79 1   
    76    37    80 1   
    77    38    81 1   
    78    38    82 1   
    79    39    40 1   
    80    39    83 1   
    81    39    84 1   
    82    40    41 ar  
    83    40    45 ar  
    84    41    42 ar  
    85    41    85 1   
    86    42    43 ar  
    87    42    86 1   
    88    43    44 ar  
    89    43    87 1   
    90    44    45 ar  
    91    44    88 1   
    92    45    89 1   
@<TRIPOS>SUBSTRUCTURE
     1 LXT         1 TEMP              0 ****  ****    0 ROOT
