@<TRIPOS>MOLECULE
LXT
   89    92     1     0     0
SMALL
abcg2


@<TRIPOS>ATOM
      1 C1           8.8670  -137.3940    19.3670 c3         1 LXT       0.039700
      2 N2           9.4290  -137.4000    20.7120 ns         1 LXT      -0.507900
      3 C3           7.8920  -136.2420    19.1810 c3         1 LXT      -0.075400
      4 C4          10.0380  -137.3210    18.3760 c          1 LXT       0.571100
      5 N5          10.5160  -138.5140    17.9910 ns         1 LXT      -0.486900
      6 O6          10.5260  -136.2480    18.0160 o          1 LXT      -0.626100
      7 C7          11.7750  -138.6620    17.2680 c3         1 LXT       0.025700
      8 C8          12.4640  -139.9570    17.6710 c3         1 LXT      -0.075400
      9 C9          11.5010  -138.5670    15.7540 c          1 LXT       0.584100
     10 O10         11.4880  -139.5530    15.0190 o          1 LXT      -0.611100
     11 N11         11.2560  -137.3100    15.3410 ns         1 LXT      -0.497900
     12 C12         10.7640  -136.9750    14.0120 c3         1 LXT       0.145300
     13 C13          9.2880  -136.6480    14.0130 ca         1 LXT      -0.121300
     14 C14          8.8350  -135.3840    13.6460 ca         1 LXT      -0.095500
     15 C15          7.4770  -135.0820    13.6550 ca         1 LXT      -0.116500
     16 C16          6.5320  -136.0320    14.0380 ca         1 LXT      -0.065300
     17 C17          6.9920  -137.3000    14.4030 ca         1 LXT      -0.116500
     18 C18          8.3450  -137.6050    14.3930 ca         1 LXT      -0.095500
     19 C19          5.0690  -135.6910    14.0990 c3         1 LXT      -0.050800
     20 C20         13.9370  -140.0050    17.2390 c3         1 LXT      -0.029100
     21 C21         14.7440  -138.8740    17.8260 ca         1 LXT      -0.088300
     22 C22         15.2820  -137.8770    17.0130 ca         1 LXT      -0.110500
     23 C23         15.9800  -136.8040    17.5630 ca         1 LXT      -0.109500
     24 C24         16.1450  -136.7130    18.9410 ca         1 LXT      -0.112000
     25 C25         15.6130  -137.7030    19.7630 ca         1 LXT      -0.109500
     26 C26         14.9220  -138.7720    19.2090 ca         1 LXT      -0.110500
     27 C27          7.1810  -136.3180    17.8260 c3         1 LXT      -0.030100
     28 C28          6.2700  -135.1440    17.5890 ca         1 LXT      -0.079300
     29 C29          4.9330  -135.1800    17.9870 ca         1 LXT      -0.104500
     30 C30          4.0950  -134.0890    17.7750 ca         1 LXT      -0.113000
     31 C31          4.5870  -132.9410    17.1590 ca         1 LXT      -0.112000
     32 C32          5.9200  -132.8940    16.7600 ca         1 LXT      -0.113000
     33 C33          6.7510  -133.9860    16.9770 ca         1 LXT      -0.104500
     34 C34          9.9390  -138.5130    21.2840 c          1 LXT       0.593100
     35 O35          9.8420  -139.6250    20.7670 o          1 LXT      -0.594100
     36 C36         10.6680  -138.2670    22.6030 c3         1 LXT       0.095500
     37 C37         12.1020  -137.8000    22.3030 c3         1 LXT      -0.071400
     38 N38         10.6790  -139.4930    23.3990 n8         1 LXT      -0.982200
     39 C41         12.8550  -137.3780    23.5720 c3         1 LXT      -0.030100
     40 C42         14.2360  -136.8470    23.2850 ca         1 LXT      -0.083300
     41 C43         15.3730  -137.5890    23.6090 ca         1 LXT      -0.106000
     42 C44         16.6480  -137.1010    23.3360 ca         1 LXT      -0.109000
     43 C45         16.8050  -135.8600    22.7290 ca         1 LXT      -0.112000
     44 C46         15.6780  -135.1100    22.4000 ca         1 LXT      -0.109000
     45 C47         14.4080  -135.6010    22.6770 ca         1 LXT      -0.106000
     46 H1           8.3460  -138.3420    19.2300 h1         1 LXT       0.083700
     47 HN2          9.5890  -136.5080    21.1570 hn         1 LXT       0.323500
     48 H3           7.1570  -136.2770    19.9890 hc         1 LXT       0.060200
     49 H3A          8.4310  -135.2960    19.2650 hc         1 LXT       0.060200
     50 HN5         10.1100  -139.3390    18.4110 hn         1 LXT       0.342500
     51 H7          12.3990  -137.8120    17.5460 h1         1 LXT       0.086700
     52 H8          12.4060  -140.0410    18.7580 hc         1 LXT       0.062200
     53 H8A         11.9260  -140.8060    17.2460 hc         1 LXT       0.062200
     54 HN11        11.1770  -136.6050    16.0660 hn         1 LXT       0.340500
     55 H12         11.3300  -136.1230    13.6330 h1         1 LXT       0.065200
     56 H12A        10.9710  -137.8290    13.3700 h1         1 LXT       0.065200
     57 H14          9.5520  -134.6260    13.3510 ha         1 LXT       0.116500
     58 H15          7.1490  -134.0890    13.3730 ha         1 LXT       0.110500
     59 H17          6.2770  -138.0570    14.7060 ha         1 LXT       0.110500
     60 H18          8.6740  -138.5940    14.6880 ha         1 LXT       0.116500
     61 H19          4.4490  -136.5610    13.8760 hc         1 LXT       0.044700
     62 H19A         4.8010  -135.3430    15.1000 hc         1 LXT       0.044700
     63 H19B         4.8190  -134.8950    13.3960 hc         1 LXT       0.044700
     64 H20         14.3520  -140.9640    17.5600 hc         1 LXT       0.059700
     65 H20A        14.0030  -139.9760    16.1510 hc         1 LXT       0.059700
     66 H22         15.1450  -137.9370    15.9400 ha         1 LXT       0.112000
     67 H23         16.3890  -136.0390    16.9140 ha         1 LXT       0.115500
     68 H24         16.6810  -135.8780    19.3750 ha         1 LXT       0.110000
     69 H25         15.7330  -137.6370    20.8350 ha         1 LXT       0.115500
     70 H26         14.5050  -139.5330    19.8580 ha         1 LXT       0.112000
     71 H27          7.9220  -136.3580    17.0260 hc         1 LXT       0.056200
     72 H27A         6.6070  -137.2460    17.7750 hc         1 LXT       0.056200
     73 H29          4.5420  -136.0760    18.4560 ha         1 LXT       0.115000
     74 H30          3.0580  -134.1370    18.0830 ha         1 LXT       0.112500
     75 H31          3.9350  -132.0940    16.9870 ha         1 LXT       0.112000
     76 H32          6.3090  -132.0090    16.2720 ha         1 LXT       0.112500
     77 H33          7.7830  -133.9520    16.6480 ha         1 LXT       0.115000
     78 H36         10.1490  -137.4410    23.1100 h1         1 LXT       0.021700
     79 H37         12.6400  -138.6080    21.8000 hc         1 LXT       0.061700
     80 H37A        12.0640  -136.9540    21.6140 hc         1 LXT       0.061700
     81 HN38        11.0010  -139.2820    24.3370 hn         1 LXT       0.405000
     82 HN3A         9.7340  -139.8510    23.4980 hn         1 LXT       0.405000
     83 H41         12.2680  -136.6090    24.0840 hc         1 LXT       0.046200
     84 H41A        12.9380  -138.2270    24.2530 hc         1 LXT       0.046200
     85 H43         15.2570  -138.5580    24.0800 ha         1 LXT       0.112000
     86 H44         17.5170  -137.6930    23.5940 ha         1 LXT       0.114500
     87 H45         17.7950  -135.4800    22.5110 ha         1 LXT       0.114000
     88 H46         15.7900  -134.1430    21.9250 ha         1 LXT       0.114500
     89 H47         13.5360  -135.0100    22.4200 ha         1 LXT       0.112000
@<TRIPOS>BOND
     1     1     2 1   
     2     1     3 1   
     3     1     4 1   
     4     1    46 1   
     5     2    34 1   
     6     2    47 1   
     7     3    27 1   
     8     3    48 1   
     9     3    49 1   
    10     4     5 1   
    11     4     6 2   
    12     5     7 1   
    13     5    50 1   
    14     7     8 1   
    15     7     9 1   
    16     7    51 1   
    17     8    20 1   
    18     8    52 1   
    19     8    53 1   
    20     9    10 2   
    21     9    11 1   
    22    11    12 1   
    23    11    54 1   
    24    12    13 1   
    25    12    55 1   
    26    12    56 1   
    27    13    14 ar  
    28    13    18 ar  
    29    14    15 ar  
    30    14    57 1   
    31    15    16 ar  
    32    15    58 1   
    33    16    17 ar  
    34    16    19 1   
    35    17    18 ar  
    36    17    59 1   
    37    18    60 1   
    38    19    61 1   
    39    19    62 1   
    40    19    63 1   
    41    20    21 1   
    42    20    64 1   
    43    20    65 1   
    44    21    22 ar  
    45    21    26 ar  
    46    22    23 ar  
    47    22    66 1   
    48    23    24 ar  
    49    23    67 1   
    50    24    25 ar  
    51    24    68 1   
    52    25    26 ar  
    53    25    69 1   
    54    26    70 1   
    55    27    28 1   
    56    27    71 1   
    57    27    72 1   
    58    28    29 ar  
    59    28    33 ar  
    60    29    30 ar  
    61    29    73 1   
    62    30    31 ar  
    63    30    74 1   
    64    31    32 ar  
    65    31    75 1   
    66    32    33 ar  
    67    32    76 1   
    68    33    77 1   
    69    34    35 2   
    70    34    36 1   
    71    36    37 1   
    72    36    38 1   
    73    36    78 1   
    74    37    39 1   
    75    37    79 1   
    76    37    80 1   
    77    38    81 1   
    78    38    82 1   
    79    39    40 1   
    80    39    83 1   
    81    39    84 1   
    82    40    41 ar  
    83    40    45 ar  
    84    41    42 ar  
    85    41    85 1   
    86    42    43 ar  
    87    42    86 1   
    88    43    44 ar  
    89    43    87 1   
    90    44    45 ar  
    91    44    88 1   
    92    45    89 1   
@<TRIPOS>SUBSTRUCTURE
     1 LXT         1 TEMP              0 ****  ****    0 ROOT
