@<TRIPOS>MOLECULE
LXU
   42    45     1     0     0
SMALL
No Charge or Current Charge


@<TRIPOS>ATOM
      1 C4          -6.3650   -11.6560   -11.0130 c6         1 LXU      -0.006000
      2 C5          -5.0590   -10.3210    -7.6890 cc         1 LXU       0.261000
      3 C6          -3.7310   -10.5020    -9.7360 ch         1 LXU       0.350000
      4 C8          -8.6080   -11.7020    -8.9080 c6         1 LXU       0.000900
      5 C13         -5.2670   -12.6080   -11.4820 cc         1 LXU       0.487300
      6 C17         -3.8140   -13.7240   -12.5220 cd         1 LXU       0.635500
      7 C20         -2.9730   -13.5540   -14.8830 ca         1 LXU      -0.018500
      8 C21         -2.1320   -13.9900   -15.9220 ca         1 LXU      -0.204000
      9 C22         -1.2430   -15.0490   -15.7130 ca         1 LXU       0.332000
     10 C24         -2.0260   -15.2490   -13.4190 ca         1 LXU      -0.018500
     11 C1          -6.1760   -11.1970    -9.5560 cd         1 LXU      -0.025300
     12 C12         -8.8890   -11.7570   -10.4240 c6         1 LXU      -0.070400
     13 C14         -6.3980   -10.3790   -11.9200 c3         1 LXU      -0.077100
     14 C19         -2.9300   -14.1800   -13.6160 ca         1 LXU      -0.202500
     15 C2          -4.9470   -10.6690    -9.0160 cd         1 LXU      -0.157000
     16 C23         -1.1890   -15.6770   -14.4650 ca         1 LXU      -0.204000
     17 C3          -7.2030   -11.2210    -8.6350 cc         1 LXU      -0.202300
     18 C9          -7.7130   -12.4380   -11.1630 c6         1 LXU      -0.070400
     19 N10         -4.0710    -9.7920    -6.8880 nv         1 LXU      -1.068000
     20 N11         -2.7370   -10.3900   -10.3380 n1         1 LXU      -0.470000
     21 N16         -3.8140   -14.2750   -11.3190 nc         1 LXU      -0.391300
     22 N18         -4.7080   -12.6920   -12.6740 nd         1 LXU      -0.720000
     23 O15         -4.7890   -13.5440   -10.6120 os         1 LXU      -0.082700
     24 S7          -6.6820   -10.6270    -7.0700 ss         1 LXU       0.157000
     25 H27         -9.3480   -11.0530    -8.4200 hc         1 LXU       0.054200
     26 H26         -8.7480   -12.7030    -8.4760 hc         1 LXU       0.054200
     27 H37         -3.6570   -12.7280   -15.0700 ha         1 LXU       0.129000
     28 H38         -2.1770   -13.4970   -16.8900 ha         1 LXU       0.113500
     29 H40         -1.9640   -15.7560   -12.4570 ha         1 LXU       0.129000
     30 H33         -9.0520   -10.7440   -10.8130 hc         1 LXU       0.048200
     31 H32         -9.8190   -12.3110   -10.6070 hc         1 LXU       0.048200
     32 H34         -7.1320    -9.6480   -11.5620 hc         1 LXU       0.052367
     33 H35         -5.4270    -9.8730   -11.9430 hc         1 LXU       0.052367
     34 H36         -6.6580   -10.6260   -12.9560 hc         1 LXU       0.052367
     35 H39         -0.4990   -16.4990   -14.2970 ha         1 LXU       0.113500
     36 H28         -7.9640   -12.5630   -12.2260 hc         1 LXU       0.057700
     37 H29         -7.5990   -13.4550   -10.7620 hc         1 LXU       0.057700
     38 H30         -4.2250    -9.6900    -5.8850 hn         1 LXU       0.484500
     39 H31         -3.1070    -9.7500    -7.2180 hn         1 LXU       0.484500
     40 H41          0.0870   -16.3410   -16.6240 hn         1 LXU       0.463000
     41 H42         -0.5890   -15.1290   -17.6730 hn         1 LXU       0.463000
     42 N25         -0.4290   -15.4690   -16.7260 nv         1 LXU      -1.092000
@<TRIPOS>BOND
     1     1     5 1   
     2     1    11 1   
     3     1    13 1   
     4     1    18 1   
     5     2    15 2   
     6     2    19 1   
     7     2    24 1   
     8     3    15 1   
     9     3    20 3   
    10     4    12 1   
    11     4    17 1   
    12     4    25 1   
    13     4    26 1   
    14     5    22 2   
    15     5    23 1   
    16     6    14 1   
    17     6    21 2   
    18     6    22 1   
    19     7     8 ar  
    20     7    14 ar  
    21     7    27 1   
    22     8     9 ar  
    23     8    28 1   
    24     9    16 ar  
    25     9    42 1   
    26    10    14 ar  
    27    10    16 ar  
    28    10    29 1   
    29    11    15 1   
    30    11    17 2   
    31    12    18 1   
    32    12    30 1   
    33    12    31 1   
    34    13    32 1   
    35    13    33 1   
    36    13    34 1   
    37    16    35 1   
    38    17    24 1   
    39    18    36 1   
    40    18    37 1   
    41    19    38 1   
    42    19    39 1   
    43    21    23 1   
    44    40    42 1   
    45    41    42 1   
@<TRIPOS>SUBSTRUCTURE
     1 LXU         1 TEMP              0 ****  ****    0 ROOT
