@<TRIPOS>MOLECULE
LXU
   42    45     1     0     0
SMALL
abcg2


@<TRIPOS>ATOM
      1 C4          -6.3840   -11.6520   -11.0550 c6         1 LXU      -0.006000
      2 C5          -5.0050   -10.3460    -7.7680 cc         1 LXU       0.261000
      3 C6          -3.7360   -10.5680    -9.8430 ch         1 LXU       0.350000
      4 C8          -8.5500   -11.7230    -8.9020 c6         1 LXU       0.000900
      5 C13         -5.2790   -12.5610   -11.4980 cc         1 LXU       0.487300
      6 C17         -3.8330   -13.6720   -12.5000 cd         1 LXU       0.635500
      7 C20         -2.9260   -13.4710   -14.7920 ca         1 LXU      -0.018500
      8 C21         -2.0940   -13.8910   -15.8100 ca         1 LXU      -0.204000
      9 C22         -1.2590   -15.0050   -15.6390 ca         1 LXU       0.332000
     10 C24         -2.1330   -15.2490   -13.3960 ca         1 LXU      -0.018500
     11 C1          -6.1650   -11.2220    -9.6240 cd         1 LXU      -0.025300
     12 C12         -8.8470   -11.7900   -10.3970 c6         1 LXU      -0.070400
     13 C14         -6.4280   -10.4270   -11.9760 c3         1 LXU      -0.077100
     14 C19         -2.9600   -14.1360   -13.5650 ca         1 LXU      -0.202500
     15 C2          -4.9260   -10.6970    -9.1040 cd         1 LXU      -0.157000
     16 C23         -1.3010   -15.6790   -14.4070 ca         1 LXU      -0.204000
     17 C3          -7.1490   -11.2490    -8.7010 cc         1 LXU      -0.202300
     18 C9          -7.7050   -12.4570   -11.1520 c6         1 LXU      -0.070400
     19 N10         -4.0550    -9.7930    -6.9910 nv         1 LXU      -1.068000
     20 N11         -2.7570   -10.4620   -10.4500 n1         1 LXU      -0.470000
     21 N16         -3.8470   -14.1810   -11.3010 nc         1 LXU      -0.391300
     22 N18         -4.7250   -12.6440   -12.6580 nd         1 LXU      -0.720000
     23 O15         -4.8020   -13.4520   -10.6420 os         1 LXU      -0.082700
     24 S7          -6.5960   -10.6450    -7.1640 ss         1 LXU       0.157000
     25 H27         -9.2600   -11.0590    -8.4050 hc         1 LXU       0.054200
     26 H26         -8.6810   -12.7110    -8.4490 hc         1 LXU       0.054200
     27 H37         -3.5600   -12.6080   -14.9530 ha         1 LXU       0.129000
     28 H38         -2.0860   -13.3550   -16.7510 ha         1 LXU       0.113500
     29 H40         -2.1400   -15.7960   -12.4610 ha         1 LXU       0.129000
     30 H33         -9.0270   -10.7850   -10.7850 hc         1 LXU       0.048200
     31 H32         -9.7650   -12.3550   -10.5630 hc         1 LXU       0.048200
     32 H34         -7.2420    -9.7680   -11.6780 hc         1 LXU       0.052367
     33 H35         -5.5040    -9.8520   -11.9340 hc         1 LXU       0.052367
     34 H36         -6.5920   -10.7270   -13.0100 hc         1 LXU       0.052367
     35 H39         -0.6720   -16.5480   -14.2520 ha         1 LXU       0.113500
     36 H28         -7.9590   -12.5780   -12.2060 hc         1 LXU       0.057700
     37 H29         -7.5580   -13.4610   -10.7430 hc         1 LXU       0.057700
     38 H30         -4.1550    -9.8220    -5.9890 hn         1 LXU       0.484500
     39 H31         -3.1000    -9.8190    -7.3130 hn         1 LXU       0.484500
     40 H41         -0.0300   -16.3330   -16.5760 hn         1 LXU       0.463000
     41 H42         -0.5830   -15.0810   -17.5600 hn         1 LXU       0.463000
     42 N25         -0.3980   -15.3980   -16.6220 nv         1 LXU      -1.092000
@<TRIPOS>BOND
     1     1     5 1   
     2     1    11 1   
     3     1    13 1   
     4     1    18 1   
     5     2    15 2   
     6     2    19 1   
     7     2    24 1   
     8     3    15 1   
     9     3    20 3   
    10     4    12 1   
    11     4    17 1   
    12     4    25 1   
    13     4    26 1   
    14     5    22 2   
    15     5    23 1   
    16     6    14 1   
    17     6    21 2   
    18     6    22 1   
    19     7     8 ar  
    20     7    14 ar  
    21     7    27 1   
    22     8     9 ar  
    23     8    28 1   
    24     9    16 ar  
    25     9    42 1   
    26    10    14 ar  
    27    10    16 ar  
    28    10    29 1   
    29    11    15 1   
    30    11    17 2   
    31    12    18 1   
    32    12    30 1   
    33    12    31 1   
    34    13    32 1   
    35    13    33 1   
    36    13    34 1   
    37    16    35 1   
    38    17    24 1   
    39    18    36 1   
    40    18    37 1   
    41    19    38 1   
    42    19    39 1   
    43    21    23 1   
    44    40    42 1   
    45    41    42 1   
@<TRIPOS>SUBSTRUCTURE
     1 LXU         1 TEMP              0 ****  ****    0 ROOT
