@<TRIPOS>MOLECULE
LXV
   35    36     1     0     0
SMALL
abcg2


@<TRIPOS>ATOM
      1 C1          27.5440    25.1330    20.3660 c5         1 LXV       0.223800
      2 C2          28.5430    26.2300    20.0170 c5         1 LXV       0.204500
      3 C3          27.8100    27.5020    20.4550 c5         1 LXV      -0.098400
      4 C4          27.0190    27.1050    21.7140 c5         1 LXV       0.251500
      5 N5          26.8520    25.6540    21.5460 nh         1 LXV      -0.776600
      6 N6          29.8030    26.1080    20.7850 n7         1 LXV      -0.869300
      7 S7          30.9500    25.0370    20.3370 sy         1 LXV       1.175600
      8 C8          31.2770    25.3330    18.5990 ca         1 LXV      -0.277500
      9 C9          31.7680    26.5420    18.1000 ca         1 LXV       0.070100
     10 C10         31.9760    26.6990    16.7350 ca         1 LXV      -0.105000
     11 C11         31.6910    25.6610    15.8580 ca         1 LXV      -0.036000
     12 C12         31.1950    24.4680    16.3600 ca         1 LXV      -0.025900
     13 C13         30.9840    24.2940    17.7180 ca         1 LXV       0.005000
     14 BR14        30.7810    23.0410    15.1640 br         1 LXV      -0.078100
     15 BR15        32.1560    28.0420    19.2120 br         1 LXV      -0.074100
     16 O16         32.1300    25.3480    21.1030 o          1 LXV      -0.530000
     17 O17         30.3900    23.7120    20.4160 o          1 LXV      -0.530000
     18 C18         25.9150    24.9340    22.1920 c2         1 LXV       0.641100
     19 N19         25.1250    25.4170    23.0870 n2         1 LXV      -0.865100
     20 C20         27.7200    27.4590    23.0240 c3         1 LXV      -0.098100
     21 H1          26.8550    25.0060    19.5240 h1         1 LXV       0.062700
     22 H1A         28.0190    24.1780    20.5730 h1         1 LXV       0.062700
     23 H2          28.7560    26.2410    18.9470 h1         1 LXV       0.054700
     24 H3          28.4880    28.3370    20.6280 hc         1 LXV       0.058700
     25 H3A         27.1260    27.7860    19.6550 hc         1 LXV       0.058700
     26 H4          26.0330    27.5750    21.7080 h1         1 LXV       0.065700
     27 HN6         30.2260    26.9990    21.0210 hn         1 LXV       0.494000
     28 H10         32.3570    27.6350    16.3530 ha         1 LXV       0.138000
     29 H11         31.8530    25.7930    14.7970 ha         1 LXV       0.140000
     30 H13         30.5920    23.3670    18.1060 ha         1 LXV       0.164000
     31 H18         25.8940    23.8860    21.8800 h5         1 LXV      -0.029200
     32 HN19        24.5200    24.6770    23.4320 hn         1 LXV       0.379400
     33 H20         27.1380    27.1030    23.8730 hc         1 LXV       0.047700
     34 H20A        28.7120    27.0100    23.0680 hc         1 LXV       0.047700
     35 H20B        27.8240    28.5430    23.1060 hc         1 LXV       0.047700
@<TRIPOS>BOND
     1     1     2 1   
     2     1     5 1   
     3     1    21 1   
     4     1    22 1   
     5     2     3 1   
     6     2     6 1   
     7     2    23 1   
     8     3     4 1   
     9     3    24 1   
    10     3    25 1   
    11     4     5 1   
    12     4    20 1   
    13     4    26 1   
    14     5    18 1   
    15     6     7 1   
    16     6    27 1   
    17     7     8 1   
    18     7    16 2   
    19     7    17 2   
    20     8     9 ar  
    21     8    13 ar  
    22     9    10 ar  
    23     9    15 1   
    24    10    11 ar  
    25    10    28 1   
    26    11    12 ar  
    27    11    29 1   
    28    12    13 ar  
    29    12    14 1   
    30    13    30 1   
    31    18    19 2   
    32    18    31 1   
    33    19    32 1   
    34    20    33 1   
    35    20    34 1   
    36    20    35 1   
@<TRIPOS>SUBSTRUCTURE
     1 LXV         1 TEMP              0 ****  ****    0 ROOT
