@<TRIPOS>MOLECULE
LXV
   35    36     1     0     0
SMALL
No Charge or Current Charge


@<TRIPOS>ATOM
      1 C1          27.9630    25.5160    20.0270 c5         1 LXV       0.223800
      2 C2          28.9100    26.7630    20.1320 c5         1 LXV       0.204500
      3 C3          27.9770    27.7920    20.8340 c5         1 LXV      -0.098400
      4 C4          27.1510    26.9660    21.8760 c5         1 LXV       0.251500
      5 N5          27.1390    25.6120    21.2610 nh         1 LXV      -0.776600
      6 N6          30.0840    26.5150    21.0220 n7         1 LXV      -0.869300
      7 S7          31.3240    25.4800    20.5980 sy         1 LXV       1.175600
      8 C8          31.1960    25.3920    18.7960 ca         1 LXV      -0.277500
      9 C9          31.5060    26.4840    17.9430 ca         1 LXV       0.070100
     10 C10         31.3850    26.3420    16.5500 ca         1 LXV      -0.105000
     11 C11         30.9620    25.1270    15.9880 ca         1 LXV      -0.036000
     12 C12         30.6570    24.0440    16.8250 ca         1 LXV      -0.025900
     13 C13         30.7740    24.1710    18.2190 ca         1 LXV       0.005000
     14 Br14        30.0770    22.3870    16.0660 br         1 LXV      -0.078100
     15 Br15        32.0500    28.2110    18.5950 br         1 LXV      -0.074100
     16 O16         32.5360    26.2170    20.9610 o          1 LXV      -0.530000
     17 O17         31.0030    24.1880    21.2090 o          1 LXV      -0.530000
     18 C18         25.9590    24.8960    21.2450 c2         1 LXV       0.641100
     19 N19         25.1230    24.9940    22.2060 n2         1 LXV      -0.865100
     20 C20         27.7430    26.9420    23.3040 c3         1 LXV      -0.098100
     21 H1          27.3350    25.6050    19.1300 h1         1 LXV       0.062700
     22 H1A         28.5070    24.5640    19.9580 h1         1 LXV       0.062700
     23 H2          29.2210    27.1250    19.1430 h1         1 LXV       0.054700
     24 H3          28.5210    28.6270    21.2910 hc         1 LXV       0.058700
     25 H3A         27.2990    28.2370    20.0970 hc         1 LXV       0.058700
     26 H4          26.1420    27.3990    21.9430 h1         1 LXV       0.065700
     27 HN6         30.6180    27.3710    21.1530 hn         1 LXV       0.494000
     28 H10         31.6160    27.1820    15.8980 ha         1 LXV       0.138000
     29 H11         30.8700    25.0270    14.9090 ha         1 LXV       0.140000
     30 H13         30.5340    23.3120    18.8440 ha         1 LXV       0.164000
     31 H18         25.8310    24.2060    20.4080 h5         1 LXV      -0.029200
     32 HN19        24.3440    24.3510    22.0110 hn         1 LXV       0.379400
     33 H20         27.0990    26.3710    23.9820 hc         1 LXV       0.047700
     34 H20A        28.7360    26.4820    23.3290 hc         1 LXV       0.047700
     35 H20B        27.8300    27.9570    23.7060 hc         1 LXV       0.047700
@<TRIPOS>BOND
     1     1     2 1   
     2     1     5 1   
     3     1    21 1   
     4     1    22 1   
     5     2     3 1   
     6     2     6 1   
     7     2    23 1   
     8     3     4 1   
     9     3    24 1   
    10     3    25 1   
    11     4     5 1   
    12     4    20 1   
    13     4    26 1   
    14     5    18 1   
    15     6     7 1   
    16     6    27 1   
    17     7     8 1   
    18     7    16 2   
    19     7    17 2   
    20     8     9 ar  
    21     8    13 ar  
    22     9    10 ar  
    23     9    15 1   
    24    10    11 ar  
    25    10    28 1   
    26    11    12 ar  
    27    11    29 1   
    28    12    13 ar  
    29    12    14 1   
    30    13    30 1   
    31    18    19 2   
    32    18    31 1   
    33    19    32 1   
    34    20    33 1   
    35    20    34 1   
    36    20    35 1   
@<TRIPOS>SUBSTRUCTURE
     1 LXV         1 TEMP              0 ****  ****    0 ROOT
