@<TRIPOS>MOLECULE
LXW
   60    63     1     0     0
SMALL
No Charge or Current Charge


@<TRIPOS>ATOM
      1 C4           0.9500   -15.0650    13.7900 c3         1 LXW       0.151300
      2 C5           0.7690   -15.7590    15.1320 ca         1 LXW      -0.065300
      3 C6          -0.1950   -16.7680    15.3090 ca         1 LXW      -0.153500
      4 N1          -0.1260   -10.2170    14.6640 n          1 LXW      -0.383800
      5 C7          -0.3330   -17.3770    16.5690 ca         1 LXW       0.333900
      6 C8           1.3510   -16.0660    17.4690 ca         1 LXW       0.333900
      7 N2           0.2060   -13.8060    13.7380 ns         1 LXW      -0.504900
      8 C9           1.5540   -15.4070    16.2450 ca         1 LXW      -0.153500
      9 C10         -0.3850   -10.9730    12.4370 c5         1 LXW      -0.084400
     10 C11         -0.9680    -9.5490    12.5880 c5         1 LXW      -0.097400
     11 C12         -0.1740    -9.0160    13.8030 c5         1 LXW       0.109000
     12 N3           0.4250   -17.0390    17.6380 nb         1 LXW      -0.668000
     13 C13         -0.9130    -8.3530    17.5710 c3         1 LXW      -0.010100
     14 C14         -2.1180    -8.2190    16.6300 ca         1 LXW      -0.080300
     15 C15         -2.3590    -7.0310    15.9060 ca         1 LXW      -0.105250
     16 N            1.5560    -8.8450    17.7290 n8         1 LXW      -0.982200
     17 C            0.3650    -8.8250    16.8050 c3         1 LXW       0.107500
     18 O            1.9130   -12.4060    14.3580 o          1 LXW      -0.574100
     19 C1           0.0830   -10.1960    16.0660 c          1 LXW       0.625100
     20 C16         -3.4480    -6.9420    15.0220 ca         1 LXW      -0.110250
     21 C17         -4.3100    -8.0370    14.8540 ca         1 LXW      -0.108500
     22 C18         -4.0840    -9.2210    15.5740 ca         1 LXW      -0.110250
     23 C19         -2.9960    -9.3110    16.4580 ca         1 LXW      -0.105250
     24 C2          -0.3730   -11.4820    13.9120 c5         1 LXW       0.028700
     25 C20         -0.7250    -7.0830    18.4210 ca         1 LXW      -0.080300
     26 C21         -1.4290    -6.9640    19.6380 ca         1 LXW      -0.105250
     27 C22         -1.2900    -5.8180    20.4390 ca         1 LXW      -0.110250
     28 C23         -0.4480    -4.7720    20.0300 ca         1 LXW      -0.108500
     29 C24          0.2510    -4.8720    18.8170 ca         1 LXW      -0.110250
     30 C25          0.1130    -6.0180    18.0150 ca         1 LXW      -0.105250
     31 C3           0.7400   -12.5710    14.0440 c          1 LXW       0.599100
     32 O1           0.0480   -11.2470    16.7040 o          1 LXW      -0.633100
     33 H1           0.5900   -15.7180    12.9840 h1         1 LXW       0.059700
     34 H2           2.0160   -14.8750    13.6090 h1         1 LXW       0.059700
     35 H3          -0.8350   -17.0800    14.4880 ha         1 LXW       0.132000
     36 H4          -1.0730   -18.1600    16.7270 h4         1 LXW       0.016600
     37 H5           1.9480   -15.8070    18.3430 h4         1 LXW       0.016600
     38 H6          -0.7750   -13.8380    13.4900 hn         1 LXW       0.317500
     39 H7           2.3110   -14.6310    16.1700 ha         1 LXW       0.132000
     40 H8          -0.9860   -11.6100    11.7780 hc         1 LXW       0.061700
     41 H9           0.6270   -10.9330    12.0150 hc         1 LXW       0.061700
     42 H10         -0.8280    -8.9330    11.6920 hc         1 LXW       0.058700
     43 H11         -2.0430    -9.5790    12.8020 hc         1 LXW       0.058700
     44 H12          0.8390    -8.7020    13.5200 h1         1 LXW       0.056700
     45 H13         -0.6860    -8.1670    14.2670 h1         1 LXW       0.056700
     46 H14         -1.1410    -9.1640    18.2740 hc         1 LXW       0.073700
     47 H15         -1.6980    -6.1750    16.0110 ha         1 LXW       0.115500
     48 H16          1.5250    -8.0040    18.3170 hn         1 LXW       0.410500
     49 H17          1.4370    -9.6120    18.4020 hn         1 LXW       0.410500
     50 H19          0.5870    -8.0750    16.0370 h1         1 LXW       0.070700
     51 H20         -3.6220    -6.0240    14.4650 ha         1 LXW       0.113750
     52 H21         -5.1520    -7.9680    14.1680 ha         1 LXW       0.114000
     53 H22         -4.7510   -10.0710    15.4450 ha         1 LXW       0.113750
     54 H23         -2.8320   -10.2370    17.0040 ha         1 LXW       0.115500
     55 H24         -1.3430   -11.9080    14.2010 h1         1 LXW       0.063700
     56 H25         -2.0900    -7.7640    19.9650 ha         1 LXW       0.115500
     57 H26         -1.8370    -5.7400    21.3760 ha         1 LXW       0.113750
     58 H27         -0.3410    -3.8840    20.6490 ha         1 LXW       0.114000
     59 H28          0.8990    -4.0590    18.4950 ha         1 LXW       0.113750
     60 H29          0.6550    -6.0660    17.0740 ha         1 LXW       0.115500
@<TRIPOS>BOND
     1     1     2 1   
     2     1     7 1   
     3     1    33 1   
     4     1    34 1   
     5     2     3 ar  
     6     2     8 ar  
     7     3     5 ar  
     8     3    35 1   
     9     4    11 1   
    10     4    19 1   
    11     4    24 1   
    12     5    12 ar  
    13     5    36 1   
    14     6     8 ar  
    15     6    12 ar  
    16     6    37 1   
    17     7    31 1   
    18     7    38 1   
    19     8    39 1   
    20     9    10 1   
    21     9    24 1   
    22     9    40 1   
    23     9    41 1   
    24    10    11 1   
    25    10    42 1   
    26    10    43 1   
    27    11    44 1   
    28    11    45 1   
    29    13    14 1   
    30    13    17 1   
    31    13    25 1   
    32    13    46 1   
    33    14    15 ar  
    34    14    23 ar  
    35    15    20 ar  
    36    15    47 1   
    37    16    17 1   
    38    16    48 1   
    39    16    49 1   
    40    17    19 1   
    41    17    50 1   
    42    18    31 2   
    43    19    32 2   
    44    20    21 ar  
    45    20    51 1   
    46    21    22 ar  
    47    21    52 1   
    48    22    23 ar  
    49    22    53 1   
    50    23    54 1   
    51    24    31 1   
    52    24    55 1   
    53    25    26 ar  
    54    25    30 ar  
    55    26    27 ar  
    56    26    56 1   
    57    27    28 ar  
    58    27    57 1   
    59    28    29 ar  
    60    28    58 1   
    61    29    30 ar  
    62    29    59 1   
    63    30    60 1   
@<TRIPOS>SUBSTRUCTURE
     1 LXW         1 TEMP              0 ****  ****    0 ROOT
