@<TRIPOS>MOLECULE
LXW
   60    63     1     0     0
SMALL
abcg2


@<TRIPOS>ATOM
      1 C4           0.4750   -14.9770    14.0400 c3         1 LXW       0.151300
      2 C5           0.9970   -15.3800    15.3960 ca         1 LXW      -0.065300
      3 C6           0.6980   -14.6920    16.5630 ca         1 LXW      -0.153500
      4 N1          -0.1830   -10.2230    14.6610 n          1 LXW      -0.383800
      5 C7           1.2190   -15.1530    17.7650 ca         1 LXW       0.333900
      6 C8           2.2760   -16.8830    16.7540 ca         1 LXW       0.333900
      7 N2          -0.2610   -13.7430    14.0080 ns         1 LXW      -0.504900
      8 C9           1.8090   -16.5050    15.5070 ca         1 LXW      -0.153500
      9 C10         -0.5220   -10.8270    12.4070 c5         1 LXW      -0.084400
     10 C11         -0.6490    -9.3180    12.5720 c5         1 LXW      -0.097400
     11 C12          0.1290    -9.0520    13.8500 c5         1 LXW       0.109000
     12 N3           1.9930   -16.2250    17.8750 nb         1 LXW      -0.668000
     13 C13         -1.2660    -8.6050    17.4510 c3         1 LXW      -0.010100
     14 C14         -2.2650    -8.2790    16.3570 ca         1 LXW      -0.080300
     15 C15         -2.2250    -7.0820    15.6460 ca         1 LXW      -0.105250
     16 N            1.0500    -9.5300    17.8520 n8         1 LXW      -0.982200
     17 C            0.0770    -9.1160    16.8620 c3         1 LXW       0.107500
     18 O            1.5470   -12.4000    14.1230 o          1 LXW      -0.574100
     19 C1          -0.2310   -10.3310    15.9930 c          1 LXW       0.625100
     20 C16         -3.1180    -6.8390    14.6110 ca         1 LXW      -0.110250
     21 C17         -4.0720    -7.7890    14.2710 ca         1 LXW      -0.108500
     22 C18         -4.1250    -8.9840    14.9750 ca         1 LXW      -0.110250
     23 C19         -3.2300    -9.2230    16.0090 ca         1 LXW      -0.105250
     24 C2          -0.5950   -11.3560    13.8490 c5         1 LXW       0.028700
     25 C20         -1.0720    -7.4590    18.4170 ca         1 LXW      -0.080300
     26 C21         -1.8280    -7.4230    19.5870 ca         1 LXW      -0.105250
     27 C22         -1.7040    -6.3760    20.4890 ca         1 LXW      -0.110250
     28 C23         -0.8120    -5.3410    20.2370 ca         1 LXW      -0.108500
     29 C24         -0.0480    -5.3670    19.0780 ca         1 LXW      -0.110250
     30 C25         -0.1770    -6.4170    18.1780 ca         1 LXW      -0.105250
     31 C3           0.3400   -12.5420    14.0360 c          1 LXW       0.599100
     32 O1          -0.5500   -11.3850    16.5350 o          1 LXW      -0.633100
     33 H1          -0.1830   -15.7620    13.6680 h1         1 LXW       0.059700
     34 H2           1.3130   -14.9240    13.3410 h1         1 LXW       0.059700
     35 H3           0.0780   -13.8060    16.5530 ha         1 LXW       0.132000
     36 H4           0.9960   -14.6210    18.6840 h4         1 LXW       0.016600
     37 H5           2.9090   -17.7580    16.8520 h4         1 LXW       0.016600
     38 H6          -1.2670   -13.7900    14.0040 hn         1 LXW       0.317500
     39 H7           2.0800   -17.0850    14.6330 ha         1 LXW       0.132000
     40 H8          -1.2980   -11.2640    11.7810 hc         1 LXW       0.061700
     41 H9           0.4450   -11.0700    11.9610 hc         1 LXW       0.061700
     42 H10         -0.2550    -8.7620    11.7220 hc         1 LXW       0.058700
     43 H11         -1.6930    -9.0290    12.7150 hc         1 LXW       0.058700
     44 H12          1.2040    -8.9920    13.6590 h1         1 LXW       0.056700
     45 H13         -0.1860    -8.1290    14.3300 h1         1 LXW       0.056700
     46 H14         -1.6840    -9.4400    18.0220 hc         1 LXW       0.073700
     47 H15         -1.4940    -6.3220    15.8960 ha         1 LXW       0.115500
     48 H16          1.2660    -8.7540    18.4660 hn         1 LXW       0.410500
     49 H17          0.6530   -10.2550    18.4370 hn         1 LXW       0.410500
     50 H19          0.5340    -8.3230    16.2680 h1         1 LXW       0.070700
     51 H20         -3.0690    -5.9020    14.0710 ha         1 LXW       0.113750
     52 H21         -4.7690    -7.6000    13.4650 ha         1 LXW       0.114000
     53 H22         -4.8670    -9.7320    14.7250 ha         1 LXW       0.113750
     54 H23         -3.2770   -10.1590    16.5520 ha         1 LXW       0.115500
     55 H24         -1.6220   -11.6340    14.1020 h1         1 LXW       0.063700
     56 H25         -2.5220    -8.2280    19.7950 ha         1 LXW       0.115500
     57 H26         -2.3010    -6.3710    21.3920 ha         1 LXW       0.113750
     58 H27         -0.7100    -4.5250    20.9400 ha         1 LXW       0.114000
     59 H28          0.6540    -4.5690    18.8730 ha         1 LXW       0.113750
     60 H29          0.4340    -6.4130    17.2840 ha         1 LXW       0.115500
@<TRIPOS>BOND
     1     1     2 1   
     2     1     7 1   
     3     1    33 1   
     4     1    34 1   
     5     2     3 ar  
     6     2     8 ar  
     7     3     5 ar  
     8     3    35 1   
     9     4    11 1   
    10     4    19 1   
    11     4    24 1   
    12     5    12 ar  
    13     5    36 1   
    14     6     8 ar  
    15     6    12 ar  
    16     6    37 1   
    17     7    31 1   
    18     7    38 1   
    19     8    39 1   
    20     9    10 1   
    21     9    24 1   
    22     9    40 1   
    23     9    41 1   
    24    10    11 1   
    25    10    42 1   
    26    10    43 1   
    27    11    44 1   
    28    11    45 1   
    29    13    14 1   
    30    13    17 1   
    31    13    25 1   
    32    13    46 1   
    33    14    15 ar  
    34    14    23 ar  
    35    15    20 ar  
    36    15    47 1   
    37    16    17 1   
    38    16    48 1   
    39    16    49 1   
    40    17    19 1   
    41    17    50 1   
    42    18    31 2   
    43    19    32 2   
    44    20    21 ar  
    45    20    51 1   
    46    21    22 ar  
    47    21    52 1   
    48    22    23 ar  
    49    22    53 1   
    50    23    54 1   
    51    24    31 1   
    52    24    55 1   
    53    25    26 ar  
    54    25    30 ar  
    55    26    27 ar  
    56    26    56 1   
    57    27    28 ar  
    58    27    57 1   
    59    28    29 ar  
    60    28    58 1   
    61    29    30 ar  
    62    29    59 1   
    63    30    60 1   
@<TRIPOS>SUBSTRUCTURE
     1 LXW         1 TEMP              0 ****  ****    0 ROOT
