@<TRIPOS>MOLECULE
LXX
   38    42     1     0     0
SMALL
No Charge or Current Charge


@<TRIPOS>ATOM
      1 C1          -5.6470     0.5130     0.6610 cc         1 LXX       0.365800
      2 N2          -6.4820    -0.4850     0.3400 nd         1 LXX      -0.504100
      3 N3          -5.6410    -1.3800    -0.3400 na         1 LXX      -0.161100
      4 C4          -4.3360    -0.9510    -0.4340 ca         1 LXX       0.374500
      5 N5          -3.2500    -1.5100    -0.9930 nb         1 LXX      -0.674000
      6 C6          -2.0900    -0.8070    -0.9030 ca         1 LXX       0.391900
      7 C7          -1.9640     0.4630    -0.2630 cp         1 LXX      -0.135000
      8 C8          -3.1400     1.0120     0.3110 ca         1 LXX       0.015000
      9 C9          -4.3100     0.2560     0.1960 ca         1 LXX      -0.274900
     10 C10         -0.6530     1.1850    -0.2010 cp         1 LXX      -0.019000
     11 C11         -0.5940     2.5960    -0.2420 ca         1 LXX      -0.096000
     12 C12          0.6370     3.2690    -0.1990 ca         1 LXX      -0.079000
     13 C13          1.8490     2.5640    -0.1050 ca         1 LXX       0.267000
     14 N14          3.0100     3.2610    -0.0850 nb         1 LXX      -0.654000
     15 C15          4.1730     2.5800    -0.0060 ca         1 LXX       0.353900
     16 C16          4.2300     1.1840     0.0660 ca         1 LXX      -0.153000
     17 C17          3.0400     0.4250     0.0630 cp         1 LXX       0.006000
     18 C18          3.1250    -1.0620     0.1750 cp         1 LXX      -0.011000
     19 C19          3.8860    -1.8260    -0.7370 ca         1 LXX      -0.151000
     20 C20          3.9650    -3.2210    -0.5920 ca         1 LXX       0.335400
     21 N21          3.3430    -3.8930     0.4060 nb         1 LXX      -0.658000
     22 C22          2.6220    -3.1720     1.2950 ca         1 LXX       0.335400
     23 C23          2.4920    -1.7750     1.2190 ca         1 LXX      -0.151000
     24 C24          1.8150     1.1440    -0.0410 ca         1 LXX      -0.064000
     25 C25          0.5690     0.4770    -0.1040 ca         1 LXX      -0.089000
     26 H1          -6.0580     1.3520     1.2070 h4         1 LXX       0.054800
     27 HN3         -5.9860    -2.2570    -0.7190 hn         1 LXX       0.389000
     28 H6          -1.2250    -1.2730    -1.3740 h4         1 LXX       0.026100
     29 H8          -3.1360     1.9680     0.8300 ha         1 LXX       0.128000
     30 H11         -1.5080     3.1790    -0.3300 ha         1 LXX       0.119000
     31 H12          0.6540     4.3540    -0.2460 ha         1 LXX       0.135000
     32 H15          5.0850     3.1750     0.0050 h4         1 LXX       0.023100
     33 H16          5.1960     0.6940     0.1400 ha         1 LXX       0.129000
     34 H19          4.4090    -1.3440    -1.5580 ha         1 LXX       0.129500
     35 H20          4.5440    -3.8200    -1.2930 h4         1 LXX       0.022600
     36 H22          2.1370    -3.7310     2.0940 h4         1 LXX       0.022600
     37 H23          1.9100    -1.2500     1.9710 ha         1 LXX       0.129500
     38 H25          0.5370    -0.6070    -0.0760 ha         1 LXX       0.123000
@<TRIPOS>BOND
     1     1     2 2   
     2     1     9 1   
     3     1    26 1   
     4     2     3 1   
     5     3     4 1   
     6     3    27 1   
     7     4     5 ar  
     8     4     9 ar  
     9     5     6 ar  
    10     6     7 ar  
    11     6    28 1   
    12     7     8 ar  
    13     7    10 1   
    14     8     9 ar  
    15     8    29 1   
    16    10    11 ar  
    17    10    25 ar  
    18    11    12 ar  
    19    11    30 1   
    20    12    13 ar  
    21    12    31 1   
    22    13    14 ar  
    23    13    24 ar  
    24    14    15 ar  
    25    15    16 ar  
    26    15    32 1   
    27    16    17 ar  
    28    16    33 1   
    29    17    18 1   
    30    17    24 ar  
    31    18    19 ar  
    32    18    23 ar  
    33    19    20 ar  
    34    19    34 1   
    35    20    21 ar  
    36    20    35 1   
    37    21    22 ar  
    38    22    23 ar  
    39    22    36 1   
    40    23    37 1   
    41    24    25 ar  
    42    25    38 1   
@<TRIPOS>SUBSTRUCTURE
     1 LXX         1 TEMP              0 ****  ****    0 ROOT
