@<TRIPOS>MOLECULE
LXX
   38    42     1     0     0
SMALL
bcc


@<TRIPOS>ATOM
      1 C1          -5.5960     0.4050     0.7260 cc         1 LXX       0.365800
      2 N2          -6.3050    -0.6100     0.3010 nd         1 LXX      -0.504100
      3 N3          -5.4910    -1.3890    -0.4180 na         1 LXX      -0.110800
      4 C4          -4.2380    -0.8930    -0.4740 ca         1 LXX       0.439800
      5 N5          -3.1880    -1.4100    -1.1030 nb         1 LXX      -0.674000
      6 C6          -2.0790    -0.7120    -0.9840 ca         1 LXX       0.457200
      7 C7          -1.9470     0.4980    -0.2590 cp         1 LXX      -0.200300
      8 C8          -3.0650     1.0140     0.3760 ca         1 LXX      -0.003000
      9 C9          -4.2550     0.2990     0.2700 ca         1 LXX      -0.340200
     10 C10         -0.6420     1.1790    -0.1960 cp         1 LXX      -0.019000
     11 C11         -0.5770     2.5940    -0.2420 ca         1 LXX      -0.114000
     12 C12          0.6230     3.2430    -0.2070 ca         1 LXX      -0.162300
     13 C13          1.8340     2.5220    -0.1180 ca         1 LXX       0.397600
     14 N14          2.9950     3.2160    -0.1180 nb         1 LXX      -0.654000
     15 C15          4.1120     2.5430    -0.0520 ca         1 LXX       0.419200
     16 C16          4.1770     1.1400     0.0380 ca         1 LXX      -0.236300
     17 C17          3.0190     0.4080     0.0610 cp         1 LXX       0.006000
     18 C18          3.0810    -1.0620     0.1930 cp         1 LXX      -0.011000
     19 C19          3.7920    -1.8280    -0.7250 ca         1 LXX      -0.234300
     20 C20          3.8520    -3.2010    -0.5460 ca         1 LXX       0.400700
     21 N21          3.2700    -3.8370     0.4630 nb         1 LXX      -0.658000
     22 C22          2.5970    -3.1020     1.3420 ca         1 LXX       0.400700
     23 C23          2.4710    -1.7250     1.2540 ca         1 LXX      -0.234300
     24 C24          1.7830     1.1060    -0.0420 ca         1 LXX      -0.129300
     25 C25          0.5270     0.4640    -0.0940 ca         1 LXX      -0.107000
     26 H1          -6.0440     1.1750     1.3340 h4         1 LXX       0.054800
     27 HN3         -5.8420    -2.2310    -0.8450 hn         1 LXX       0.338700
     28 H6          -1.2150    -1.1040    -1.5100 h4         1 LXX       0.026100
     29 H8          -3.0120     1.9310     0.9510 ha         1 LXX       0.146000
     30 H11         -1.4890     3.1690    -0.3350 ha         1 LXX       0.137000
     31 H12          0.6710     4.3230    -0.2630 ha         1 LXX       0.153000
     32 H15          5.0320     3.1170    -0.0580 h4         1 LXX       0.023100
     33 H16          5.1420     0.6560     0.1140 ha         1 LXX       0.147000
     34 H19          4.2810    -1.3680    -1.5730 ha         1 LXX       0.147500
     35 H20          4.3960    -3.8130    -1.2570 h4         1 LXX       0.022600
     36 H22          2.1320    -3.6330     2.1650 h4         1 LXX       0.022600
     37 H23          1.9210    -1.1840     2.0120 ha         1 LXX       0.147500
     38 H25          0.4850    -0.6160    -0.0440 ha         1 LXX       0.141000
@<TRIPOS>BOND
     1     1     2 2   
     2     1     9 1   
     3     1    26 1   
     4     2     3 1   
     5     3     4 1   
     6     3    27 1   
     7     4     5 ar  
     8     4     9 ar  
     9     5     6 ar  
    10     6     7 ar  
    11     6    28 1   
    12     7     8 ar  
    13     7    10 1   
    14     8     9 ar  
    15     8    29 1   
    16    10    11 ar  
    17    10    25 ar  
    18    11    12 ar  
    19    11    30 1   
    20    12    13 ar  
    21    12    31 1   
    22    13    14 ar  
    23    13    24 ar  
    24    14    15 ar  
    25    15    16 ar  
    26    15    32 1   
    27    16    17 ar  
    28    16    33 1   
    29    17    18 1   
    30    17    24 ar  
    31    18    19 ar  
    32    18    23 ar  
    33    19    20 ar  
    34    19    34 1   
    35    20    21 ar  
    36    20    35 1   
    37    21    22 ar  
    38    22    23 ar  
    39    22    36 1   
    40    23    37 1   
    41    24    25 ar  
    42    25    38 1   
@<TRIPOS>SUBSTRUCTURE
     1 LXX         1 TEMP              0 ****  ****    0 ROOT
