@<TRIPOS>MOLECULE
LXY
   60    63     1     0     0
SMALL
bcc


@<TRIPOS>ATOM
      1 C1         159.3710   140.7280   181.0920 c3         1 LXY      -0.100100
      2 C13        159.2020   141.8450   185.0620 ca         1 LXY      -0.327500
      3 C14        160.5560   141.6000   184.8600 ca         1 LXY      -0.004000
      4 C15        161.4950   142.3630   185.5320 ca         1 LXY      -0.191500
      5 C16        161.0520   143.3480   186.3970 ca         1 LXY       0.199900
      6 C17        159.7100   143.5990   186.6140 ca         1 LXY      -0.191500
      7 C18        158.7740   142.8370   185.9380 ca         1 LXY      -0.004000
      8 C2         158.8550   141.9680   181.7930 c5         1 LXY       0.190500
      9 C20        155.3750   142.3880   182.4190 c          1 LXY       0.671100
     10 C23        153.9980   140.7030   181.3340 c3         1 LXY       0.138300
     11 C24        153.3280   139.8940   182.4290 ca         1 LXY      -0.008300
     12 C25        154.0940   139.3890   183.4670 ca         1 LXY      -0.225300
     13 C26        153.5060   138.6270   184.4690 cp         1 LXY       0.508800
     14 C28        151.4620   138.8310   183.4970 ca         1 LXY       0.462200
     15 C29        151.9640   139.5890   182.4440 ca         1 LXY      -0.312600
     16 C30        151.0290   140.0800   181.3810 c3         1 LXY       0.729200
     17 C34        154.2980   138.0930   185.5910 cp         1 LXY      -0.359100
     18 C35        155.6740   137.8830   185.5270 ca         1 LXY       0.471700
     19 C37        155.6790   137.1470   187.6490 ca         1 LXY       0.555300
     20 C39        153.6960   137.7650   186.8020 ca         1 LXY       0.471700
     21 C4         158.1790   142.9530   180.8430 c5         1 LXY       0.170600
     22 C40        156.5000   136.6190   188.8050 c3         1 LXY       0.649600
     23 C6         157.3470   143.8310   181.7470 c5         1 LXY      -0.111400
     24 C7         156.7880   142.8380   182.7710 c5         1 LXY       0.135500
     25 F19        161.9530   144.0820   187.0520 f          1 LXY      -0.126900
     26 F31        149.8150   139.5380   181.4830 f          1 LXY      -0.231300
     27 F32        150.8660   141.4090   181.4380 f          1 LXY      -0.231300
     28 F33        151.4780   139.7970   180.1510 f          1 LXY      -0.231300
     29 F41        157.1890   135.5340   188.4440 f          1 LXY      -0.219300
     30 F42        157.3870   137.5320   189.2130 f          1 LXY      -0.219300
     31 F43        155.7430   136.2940   189.8460 f          1 LXY      -0.219300
     32 F44        159.1200   143.6750   180.1320 f          1 LXY      -0.230300
     33 N22        155.2700   141.2430   181.7250 ns         1 LXY      -0.566900
     34 N27        152.2050   138.3610   184.4830 nb         1 LXY      -0.673000
     35 N36        156.3640   137.4130   186.5530 nb         1 LXY      -0.660500
     36 N38        154.3840   137.2930   187.8330 nb         1 LXY      -0.660500
     37 N9         157.7550   141.7290   182.7470 n3         1 LXY      -0.765500
     38 O11        156.7380   140.9790   184.8820 o          1 LXY      -0.604800
     39 O12        158.5760   139.6160   183.8460 o          1 LXY      -0.604800
     40 O21        154.4210   143.0840   182.7210 o          1 LXY      -0.572100
     41 S10        158.0030   140.9100   184.1640 sy         1 LXY       1.305200
     42 H11        159.9460   140.0850   181.7520 hc         1 LXY       0.059367
     43 H12        158.5480   140.1500   180.6710 hc         1 LXY       0.059367
     44 H13        160.0290   141.0310   180.2770 hc         1 LXY       0.059367
     45 H141       160.8900   140.8190   184.1900 ha         1 LXY       0.158500
     46 H151       162.5530   142.1890   185.3910 ha         1 LXY       0.160500
     47 H171       159.4000   144.3710   187.3050 ha         1 LXY       0.160500
     48 H181       157.7220   143.0160   186.1100 ha         1 LXY       0.158500
     49 H3         159.6830   142.4940   182.2880 h1         1 LXY       0.062700
     50 H232       153.3610   141.5190   181.0010 h1         1 LXY       0.082200
     51 H231       154.1610   140.0530   180.4730 h1         1 LXY       0.082200
     52 H251       155.1480   139.6150   183.5080 ha         1 LXY       0.155000
     53 H281       150.4080   138.5890   183.5500 h4         1 LXY       0.042100
     54 H351       156.2380   138.0780   184.6230 h4         1 LXY       0.046100
     55 H391       152.6300   137.8950   186.9410 h4         1 LXY       0.046100
     56 H5         157.5590   142.4160   180.1190 h1         1 LXY       0.071700
     57 H62        157.9980   144.5440   182.2560 hc         1 LXY       0.082700
     58 H61        156.5690   144.3890   181.2280 hc         1 LXY       0.082700
     59 H8         156.7260   143.3210   183.7480 h1         1 LXY       0.096700
     60 H221       156.1000   140.6920   181.5680 hn         1 LXY       0.330500
@<TRIPOS>BOND
     1     1     8 1   
     2     1    42 1   
     3     1    43 1   
     4     1    44 1   
     5     2     3 ar  
     6     2     7 ar  
     7     2    41 1   
     8     3     4 ar  
     9     3    45 1   
    10     4     5 ar  
    11     4    46 1   
    12     5     6 ar  
    13     5    25 1   
    14     6     7 ar  
    15     6    47 1   
    16     7    48 1   
    17     8    21 1   
    18     8    37 1   
    19     8    49 1   
    20     9    24 1   
    21     9    33 1   
    22     9    40 2   
    23    10    11 1   
    24    10    33 1   
    25    10    50 1   
    26    10    51 1   
    27    11    12 ar  
    28    11    15 ar  
    29    12    13 ar  
    30    12    52 1   
    31    13    17 1   
    32    13    34 ar  
    33    14    15 ar  
    34    14    34 ar  
    35    14    53 1   
    36    15    16 1   
    37    16    26 1   
    38    16    27 1   
    39    16    28 1   
    40    17    18 ar  
    41    17    20 ar  
    42    18    35 ar  
    43    18    54 1   
    44    19    22 1   
    45    19    35 ar  
    46    19    36 ar  
    47    20    36 ar  
    48    20    55 1   
    49    21    23 1   
    50    21    32 1   
    51    21    56 1   
    52    22    29 1   
    53    22    30 1   
    54    22    31 1   
    55    23    24 1   
    56    23    57 1   
    57    23    58 1   
    58    24    37 1   
    59    24    59 1   
    60    33    60 1   
    61    37    41 1   
    62    38    41 2   
    63    39    41 2   
@<TRIPOS>SUBSTRUCTURE
     1 LXY         1 TEMP              0 ****  ****    0 ROOT
