@<TRIPOS>MOLECULE
LXY
   60    63     1     0     0
SMALL
No Charge or Current Charge


@<TRIPOS>ATOM
      1 C1         159.7880   141.2800   181.6740 c3         1 LXY      -0.100100
      2 C13        159.0080   141.8900   185.0190 ca         1 LXY      -0.327500
      3 C14        160.1570   141.1230   185.3090 ca         1 LXY       0.014000
      4 C15        161.2480   141.7230   185.9590 ca         1 LXY      -0.173500
      5 C16        161.1910   143.0760   186.3220 ca         1 LXY       0.235000
      6 C17        160.0480   143.8390   186.0440 ca         1 LXY      -0.173500
      7 C18        158.9510   143.2470   185.3950 ca         1 LXY       0.014000
      8 C2         158.7850   142.4090   181.9940 c5         1 LXY       0.190500
      9 C20        155.0850   142.5010   182.0340 c          1 LXY       0.604100
     10 C23        154.0770   140.3500   181.1840 c3         1 LXY       0.138300
     11 C24        153.3780   139.7260   182.4000 ca         1 LXY      -0.008300
     12 C25        154.1690   139.1160   183.3910 ca         1 LXY      -0.142000
     13 C26        153.5790   138.5630   184.5480 cp         1 LXY       0.443500
     14 C28        151.4670   139.1580   183.7810 ca         1 LXY       0.396900
     15 C29        151.9720   139.7300   182.5950 ca         1 LXY      -0.247300
     16 C30        150.9940   140.3300   181.5790 c3         1 LXY       0.365300
     17 C34        154.3830   137.9300   185.6400 cp         1 LXY      -0.228500
     18 C35        155.7150   137.4830   185.4450 ca         1 LXY       0.143400
     19 C37        155.8490   136.7930   187.6390 ca         1 LXY       0.029300
     20 C39        153.8640   137.7370   186.9460 ca         1 LXY       0.143400
     21 C4         158.1750   143.0380   180.7140 c5         1 LXY       0.189300
     22 C40        156.6890   136.1540   188.7540 c3         1 LXY       0.285700
     23 C6         157.0880   143.9350   181.3360 c5         1 LXY      -0.111400
     24 C7         156.5030   143.0280   182.4640 c5         1 LXY       0.135500
     25 F19        162.2430   143.6490   186.9460 f          1 LXY      -0.162000
     26 F31        149.6980   140.1170   181.9020 f          1 LXY      -0.110000
     27 F32        151.1450   141.6690   181.4690 f          1 LXY      -0.110000
     28 F33        151.1670   139.8050   180.3450 f          1 LXY      -0.110000
     29 F41        157.0480   134.8870   188.4430 f          1 LXY      -0.098000
     30 F42        157.8320   136.8440   188.9740 f          1 LXY      -0.098000
     31 F43        156.0390   136.0940   189.9410 f          1 LXY      -0.098000
     32 F44        159.1090   143.8010   180.0070 f          1 LXY      -0.249000
     33 N22        155.1990   141.2050   181.5790 ns         1 LXY      -0.499900
     34 N27        152.2460   138.5990   184.7300 nb         1 LXY      -0.673000
     35 N36        156.4420   136.9200   186.4300 nb         1 LXY      -0.134500
     36 N38        154.5860   137.1770   187.9370 nb         1 LXY      -0.134500
     37 N9         157.5520   141.9600   182.6900 n3         1 LXY      -0.765500
     38 O11        156.3950   141.5600   184.9030 o          1 LXY      -0.534000
     39 O12        157.8520   139.7280   183.8870 o          1 LXY      -0.534000
     40 O21        154.0190   143.1000   182.1010 o          1 LXY      -0.572100
     41 S10        157.6030   141.1400   184.1870 sy         1 LXY       1.163600
     42 H11        160.2440   140.8710   182.5800 hc         1 LXY       0.059367
     43 H12        159.2970   140.4560   181.1440 hc         1 LXY       0.059367
     44 H13        160.6020   141.6500   181.0400 hc         1 LXY       0.059367
     45 H141       160.2090   140.0710   185.0330 ha         1 LXY       0.140500
     46 H151       162.1380   141.1410   186.1820 ha         1 LXY       0.142500
     47 H171       160.0120   144.8860   186.3320 ha         1 LXY       0.142500
     48 H181       158.0650   143.8440   185.1820 ha         1 LXY       0.140500
     49 H3         159.3090   143.1780   182.5780 h1         1 LXY       0.062700
     50 H232       153.3840   140.9500   180.5830 h1         1 LXY       0.082200
     51 H231       154.4570   139.5460   180.5400 h1         1 LXY       0.082200
     52 H251       155.2450   139.0900   183.2720 ha         1 LXY       0.137000
     53 H281       150.3990   139.1430   183.9930 h4         1 LXY       0.042100
     54 H351       156.2100   137.5580   184.4790 h4         1 LXY       0.046100
     55 H391       152.8540   138.0450   187.2120 h4         1 LXY       0.046100
     56 H5         157.7530   142.2770   180.0440 h1         1 LXY       0.071700
     57 H62        157.5280   144.8440   181.7640 hc         1 LXY       0.082700
     58 H61        156.3400   144.2560   180.6020 hc         1 LXY       0.082700
     59 H8         156.3410   143.6330   183.3670 h1         1 LXY       0.096700
     60 H221       156.1390   140.8210   181.6130 hn         1 LXY       0.330500
@<TRIPOS>BOND
     1     1     8 1   
     2     1    42 1   
     3     1    43 1   
     4     1    44 1   
     5     2     3 ar  
     6     2     7 ar  
     7     2    41 1   
     8     3     4 ar  
     9     3    45 1   
    10     4     5 ar  
    11     4    46 1   
    12     5     6 ar  
    13     5    25 1   
    14     6     7 ar  
    15     6    47 1   
    16     7    48 1   
    17     8    21 1   
    18     8    37 1   
    19     8    49 1   
    20     9    24 1   
    21     9    33 1   
    22     9    40 2   
    23    10    11 1   
    24    10    33 1   
    25    10    50 1   
    26    10    51 1   
    27    11    12 ar  
    28    11    15 ar  
    29    12    13 ar  
    30    12    52 1   
    31    13    17 1   
    32    13    34 ar  
    33    14    15 ar  
    34    14    34 ar  
    35    14    53 1   
    36    15    16 1   
    37    16    26 1   
    38    16    27 1   
    39    16    28 1   
    40    17    18 ar  
    41    17    20 ar  
    42    18    35 ar  
    43    18    54 1   
    44    19    22 1   
    45    19    35 ar  
    46    19    36 ar  
    47    20    36 ar  
    48    20    55 1   
    49    21    23 1   
    50    21    32 1   
    51    21    56 1   
    52    22    29 1   
    53    22    30 1   
    54    22    31 1   
    55    23    24 1   
    56    23    57 1   
    57    23    58 1   
    58    24    37 1   
    59    24    59 1   
    60    33    60 1   
    61    37    41 1   
    62    38    41 2   
    63    39    41 2   
@<TRIPOS>SUBSTRUCTURE
     1 LXY         1 TEMP              0 ****  ****    0 ROOT
