@<TRIPOS>MOLECULE
LXZ
   30    30     1     0     0
SMALL
abcg2


@<TRIPOS>ATOM
      1 O1          32.7710   -97.2810   -84.9910 oh         1 LXZ      -0.637000
      2 C1          31.4860   -96.8180   -84.7940 c6         1 LXZ       0.382300
      3 C2          31.2040   -95.7280   -85.8280 c6         1 LXZ       0.062700
      4 C3          29.8250   -95.1090   -85.5700 c6         1 LXZ       0.138300
      5 C4          29.7390   -94.6090   -84.1280 c6         1 LXZ       0.123300
      6 C5          30.1700   -95.6970   -83.1320 c6         1 LXZ       0.115300
      7 C6          29.1110   -96.7840   -82.8780 c3         1 LXZ       0.115600
      8 C8          30.9930   -97.3510   -89.2600 c3         1 LXZ      -0.177100
      9 N2          31.3830   -96.1680   -87.1950 ns         1 LXZ      -0.487900
     10 O3          29.5260   -94.0990   -86.4970 oh         1 LXZ      -0.623000
     11 O4          28.4360   -94.1300   -83.8880 oh         1 LXZ      -0.708000
     12 O5          31.4170   -96.2440   -83.5030 os         1 LXZ      -0.491000
     13 O6          28.0320   -96.2670   -82.1210 oh         1 LXZ      -0.717000
     14 O7          29.6880   -97.6610   -87.2760 o          1 LXZ      -0.618100
     15 HO1         32.9070   -98.0760   -84.4610 ho         1 LXZ       0.460000
     16 H1          30.7580   -97.6350   -84.8830 h2         1 LXZ       0.049700
     17 H2          31.9570   -94.9470   -85.6690 h1         1 LXZ       0.065700
     18 H3          29.0520   -95.8680   -85.7120 h1         1 LXZ       0.111700
     19 H4          30.4590   -93.7790   -84.0180 h1         1 LXZ       0.048700
     20 H5          30.3580   -95.2210   -82.1640 h1         1 LXZ       0.074700
     21 H61         28.6860   -97.1760   -83.8040 h1         1 LXZ       0.064700
     22 H62         29.5970   -97.6220   -82.3670 h1         1 LXZ       0.064700
     23 H81         30.2160   -96.9550   -89.9160 hc         1 LXZ       0.061033
     24 H82         31.9410   -96.9000   -89.5450 hc         1 LXZ       0.061033
     25 H83         31.0520   -98.4260   -89.4230 hc         1 LXZ       0.061033
     26 HN2         32.1110   -95.7150   -87.7190 hn         1 LXZ       0.320500
     27 HO3         30.1580   -93.3790   -86.3910 ho         1 LXZ       0.433000
     28 HO4         28.0890   -94.5400   -83.0860 ho         1 LXZ       0.528000
     29 HO6         28.3090   -96.2030   -81.2000 ho         1 LXZ       0.505000
     30 C7          30.6210   -97.0830   -87.8200 c          1 LXZ       0.610100
@<TRIPOS>BOND
     1     1     2 1   
     2     1    15 1   
     3     2     3 1   
     4     2    12 1   
     5     2    16 1   
     6     3     4 1   
     7     3     9 1   
     8     3    17 1   
     9     4     5 1   
    10     4    10 1   
    11     4    18 1   
    12     5     6 1   
    13     5    11 1   
    14     5    19 1   
    15     6     7 1   
    16     6    12 1   
    17     6    20 1   
    18     7    13 1   
    19     7    21 1   
    20     7    22 1   
    21     8    23 1   
    22     8    24 1   
    23     8    25 1   
    24     8    30 1   
    25     9    26 1   
    26     9    30 1   
    27    10    27 1   
    28    11    28 1   
    29    13    29 1   
    30    14    30 2   
@<TRIPOS>SUBSTRUCTURE
     1 LXZ         1 TEMP              0 ****  ****    0 ROOT
