@<TRIPOS>MOLECULE
LXZ
   30    30     1     0     0
SMALL
No Charge or Current Charge


@<TRIPOS>ATOM
      1 O1          32.8770   -97.3740   -84.9700 oh         1 LXZ      -0.637000
      2 C1          31.5720   -96.8570   -84.8140 c6         1 LXZ       0.382300
      3 C2          31.2750   -95.7400   -85.8700 c6         1 LXZ       0.062700
      4 C3          29.9540   -94.9920   -85.5170 c6         1 LXZ       0.138300
      5 C4          29.9910   -94.4930   -84.0400 c6         1 LXZ       0.123300
      6 C5          30.3410   -95.6660   -83.0680 c6         1 LXZ       0.115300
      7 C6          29.2050   -96.7370   -82.9040 c3         1 LXZ       0.115600
      8 C8          30.7750   -97.5220   -89.2760 c3         1 LXZ      -0.177100
      9 N2          31.3010   -96.2200   -87.2750 ns         1 LXZ      -0.487900
     10 O3          29.7330   -93.8740   -86.3970 oh         1 LXZ      -0.623000
     11 O4          28.7360   -93.8900   -83.6800 oh         1 LXZ      -0.708000
     12 O5          31.5750   -96.3050   -83.4900 os         1 LXZ      -0.491000
     13 O6          27.9650   -96.1420   -82.4630 oh         1 LXZ      -0.717000
     14 O7          29.7010   -97.8390   -87.1410 o          1 LXZ      -0.618100
     15 HO1         33.2610   -97.2670   -84.0750 ho         1 LXZ       0.460000
     16 H1          30.8370   -97.6720   -84.8860 h2         1 LXZ       0.049700
     17 H2          32.0890   -95.0060   -85.7820 h1         1 LXZ       0.065700
     18 H3          29.1230   -95.7080   -85.6130 h1         1 LXZ       0.111700
     19 H4          30.7940   -93.7450   -83.9570 h1         1 LXZ       0.048700
     20 H5          30.5210   -95.2350   -82.0720 h1         1 LXZ       0.074700
     21 H61         29.0460   -97.2590   -83.8560 h1         1 LXZ       0.064700
     22 H62         29.5520   -97.4830   -82.1750 h1         1 LXZ       0.064700
     23 H81         30.6470   -96.5970   -89.8500 hc         1 LXZ       0.061033
     24 H82         31.8390   -97.7410   -89.4220 hc         1 LXZ       0.061033
     25 H83         30.1390   -98.3270   -89.6580 hc         1 LXZ       0.061033
     26 HN2         31.9470   -95.7740   -87.9160 hn         1 LXZ       0.320500
     27 HO3         29.1040   -93.2900   -85.9170 ho         1 LXZ       0.433000
     28 HO4         28.2550   -94.6090   -83.1740 ho         1 LXZ       0.528000
     29 HO6         27.3690   -96.8800   -82.1810 ho         1 LXZ       0.505000
     30 C7          30.5280   -97.2280   -87.8020 c          1 LXZ       0.610100
@<TRIPOS>BOND
     1     1     2 1   
     2     1    15 1   
     3     2     3 1   
     4     2    12 1   
     5     2    16 1   
     6     3     4 1   
     7     3     9 1   
     8     3    17 1   
     9     4     5 1   
    10     4    10 1   
    11     4    18 1   
    12     5     6 1   
    13     5    11 1   
    14     5    19 1   
    15     6     7 1   
    16     6    12 1   
    17     6    20 1   
    18     7    13 1   
    19     7    21 1   
    20     7    22 1   
    21     8    23 1   
    22     8    24 1   
    23     8    25 1   
    24     8    30 1   
    25     9    26 1   
    26     9    30 1   
    27    10    27 1   
    28    11    28 1   
    29    13    29 1   
    30    14    30 2   
@<TRIPOS>SUBSTRUCTURE
     1 LXZ         1 TEMP              0 ****  ****    0 ROOT
