@<TRIPOS>MOLECULE
LY0
   24    23     1     0     0
SMALL
abcg2


@<TRIPOS>ATOM
      1 P           -1.1830    -0.5390    -0.1530 p5         1 LY0       1.395000
      2 C1          -2.4910     1.7220     0.9150 c3         1 LY0      -0.093100
      3 N1          -3.7790     0.0460    -0.4160 n8         1 LY0      -0.960200
      4 C2          -2.5110     0.7560    -0.2690 c3         1 LY0      -0.187500
      5 C4           0.3320     0.4510     0.1780 c3         1 LY0      -0.411400
      6 C5           1.6360    -0.3190    -0.0120 c3         1 LY0      -0.147700
      7 C6           2.8930     0.5840    -0.0150 c          1 LY0       0.715000
      8 C7           1.8000    -1.4270     1.0300 c3         1 LY0      -0.064100
      9 O31         -1.0240    -1.2120    -1.5060 o          1 LY0      -0.837000
     10 O32         -1.5400    -1.4090     1.0450 o          1 LY0      -0.837000
     11 O61          3.9820    -0.0020    -0.2050 o          1 LY0      -0.771000
     12 O62          2.7480     1.8090     0.1670 o          1 LY0      -0.771000
     13 H1          -2.5510     1.1770     1.8600 hc         1 LY0       0.014700
     14 H1A         -1.5870     2.3310     0.9390 hc         1 LY0       0.014700
     15 H1B         -3.3440     2.4040     0.8680 hc         1 LY0       0.014700
     16 HN1         -3.8990    -0.5670     0.3830 hn         1 LY0       0.362000
     17 HN1A        -4.5450     0.7090    -0.3700 hn         1 LY0       0.362000
     18 H2          -2.3380     1.3300    -1.1860 h1         1 LY0       0.052700
     19 H4           0.3150     1.3070    -0.5030 hc         1 LY0       0.036200
     20 H4A          0.2880     0.8690     1.1890 hc         1 LY0       0.036200
     21 H5           1.5990    -0.8020    -0.9970 hc         1 LY0       0.044700
     22 H7           2.7230    -1.9840     0.8710 hc         1 LY0       0.011033
     23 H7A          1.8330    -1.0070     2.0390 hc         1 LY0       0.011033
     24 H7B          0.9680    -2.1280     1.0010 hc         1 LY0       0.011033
@<TRIPOS>BOND
     1     1     4 1   
     2     1     5 1   
     3     1     9 1   
     4     1    10 1   
     5     2     4 1   
     6     2    13 1   
     7     2    14 1   
     8     2    15 1   
     9     3     4 1   
    10     3    16 1   
    11     3    17 1   
    12     4    18 1   
    13     5     6 1   
    14     5    19 1   
    15     5    20 1   
    16     6     7 1   
    17     6     8 1   
    18     6    21 1   
    19     7    11 1   
    20     7    12 1   
    21     8    22 1   
    22     8    23 1   
    23     8    24 1   
@<TRIPOS>SUBSTRUCTURE
     1 LY0         1 TEMP              0 ****  ****    0 ROOT
