@<TRIPOS>MOLECULE
LY0
   24    23     1     0     0
SMALL
No Charge or Current Charge


@<TRIPOS>ATOM
      1 P           -1.1910    -0.6470     0.0770 p5         1 LY0       1.395000
      2 C1          -2.6610     1.7020     0.8820 c3         1 LY0      -0.093100
      3 N1          -3.9820     0.2840    -0.6650 n8         1 LY0      -0.960200
      4 C2          -2.5650     0.6640    -0.2630 c3         1 LY0      -0.187500
      5 C4           0.3640     0.3520     0.2310 c3         1 LY0      -0.411400
      6 C5           1.7400    -0.3740     0.0150 c3         1 LY0      -0.147700
      7 C6           2.9350     0.6190    -0.1170 c          1 LY0       0.715000
      8 C7           2.0290    -1.4340     1.1060 c3         1 LY0      -0.064100
      9 O31         -1.0730    -1.5880    -1.0860 o          1 LY0      -0.837000
     10 O32         -1.4700    -1.3670     1.3630 o          1 LY0      -0.837000
     11 O61          3.5520     0.6410    -1.1720 o          1 LY0      -0.771000
     12 O62          3.2160     1.3390     0.8310 o          1 LY0      -0.771000
     13 H1          -2.9900     1.2270     1.8150 hc         1 LY0       0.014700
     14 H1A         -1.6890     2.1740     1.0660 hc         1 LY0       0.014700
     15 H1B         -3.3710     2.5000     0.6340 hc         1 LY0       0.014700
     16 HN1         -4.4200    -0.2710     0.0820 hn         1 LY0       0.362000
     17 HN1A        -4.5680     1.1260    -0.7230 hn         1 LY0       0.362000
     18 H2          -2.1390     1.1930    -1.1260 h1         1 LY0       0.052700
     19 H4           0.2690     1.1530    -0.5090 hc         1 LY0       0.036200
     20 H4A          0.3460     0.8240     1.2190 hc         1 LY0       0.036200
     21 H5           1.6740    -0.9110    -0.9390 hc         1 LY0       0.044700
     22 H7           3.0020    -1.9080     0.9290 hc         1 LY0       0.011033
     23 H7A          2.0480    -0.9770     2.1030 hc         1 LY0       0.011033
     24 H7B          1.2690    -2.2230     1.1020 hc         1 LY0       0.011033
@<TRIPOS>BOND
     1     1     4 1   
     2     1     5 1   
     3     1     9 1   
     4     1    10 1   
     5     2     4 1   
     6     2    13 1   
     7     2    14 1   
     8     2    15 1   
     9     3     4 1   
    10     3    16 1   
    11     3    17 1   
    12     4    18 1   
    13     5     6 1   
    14     5    19 1   
    15     5    20 1   
    16     6     7 1   
    17     6     8 1   
    18     6    21 1   
    19     7    11 1   
    20     7    12 1   
    21     8    22 1   
    22     8    23 1   
    23     8    24 1   
@<TRIPOS>SUBSTRUCTURE
     1 LY0         1 TEMP              0 ****  ****    0 ROOT
