@<TRIPOS>MOLECULE
LY1
   24    25     1     0     0
SMALL
No Charge or Current Charge


@<TRIPOS>ATOM
      1 C1          28.7110    42.9690    18.6250 c3         1 LY1       0.204100
      2 N1          30.1310    42.9570    19.0400 n7         1 LY1      -0.859400
      3 C2          30.5870    44.0700    19.8980 c3         1 LY1       0.157800
      4 C3          30.5800    45.4270    19.1630 c3         1 LY1      -0.110400
      5 C4          29.1840    45.9110    18.7090 c3         1 LY1      -0.033100
      6 C4A         28.7080    45.2280    17.4290 ca         1 LY1      -0.062300
      7 C5          28.4920    46.0190    16.2830 ca         1 LY1      -0.103000
      8 C6          28.0730    45.4350    15.0800 ca         1 LY1      -0.093000
      9 C7          27.8670    44.0520    15.0070 ca         1 LY1       0.118000
     10 C8          28.0760    43.2410    16.1440 ca         1 LY1       0.135000
     11 C8A         28.4970    43.8250    17.3700 ca         1 LY1      -0.101300
     12 Cl1         27.3440    43.3580    13.4700 cl         1 LY1      -0.181000
     13 Cl2         27.8060    41.4950    16.0000 cl         1 LY1      -0.184000
     14 HC11        28.0700    43.3470    19.4350 h1         1 LY1       0.067700
     15 HC12        28.3800    41.9390    18.4500 h1         1 LY1       0.067700
     16 HN11        30.7160    42.9110    18.1970 hn         1 LY1       0.418000
     17 HC21        31.6130    43.8740    20.2410 h1         1 LY1       0.052700
     18 HC22        29.9590    44.1450    20.7970 h1         1 LY1       0.052700
     19 HC31        31.2570    45.3890    18.3000 hc         1 LY1       0.047700
     20 HC32        30.9960    46.1750    19.8480 hc         1 LY1       0.047700
     21 HC41        29.2360    46.9960    18.5580 hc         1 LY1       0.051700
     22 HC42        28.4590    45.7620    19.5190 hc         1 LY1       0.051700
     23 HC51        28.6530    47.0940    16.3210 ha         1 LY1       0.121000
     24 HC61        27.9110    46.0550    14.2020 ha         1 LY1       0.134000
@<TRIPOS>BOND
     1     1     2 1   
     2     1    11 1   
     3     1    14 1   
     4     1    15 1   
     5     2     3 1   
     6     2    16 1   
     7     3     4 1   
     8     3    17 1   
     9     3    18 1   
    10     4     5 1   
    11     4    19 1   
    12     4    20 1   
    13     5     6 1   
    14     5    21 1   
    15     5    22 1   
    16     6     7 ar  
    17     6    11 ar  
    18     7     8 ar  
    19     7    23 1   
    20     8     9 ar  
    21     8    24 1   
    22     9    10 ar  
    23     9    12 1   
    24    10    11 ar  
    25    10    13 1   
@<TRIPOS>SUBSTRUCTURE
     1 LY1         1 TEMP              0 ****  ****    0 ROOT
