@<TRIPOS>MOLECULE
LY1
   24    25     1     0     0
SMALL
abcg2


@<TRIPOS>ATOM
      1 C1          28.7260    42.9990    18.6130 c3         1 LY1       0.204100
      2 N1          30.1190    42.9300    19.0610 n7         1 LY1      -0.859400
      3 C2          30.5860    44.0750    19.8400 c3         1 LY1       0.157800
      4 C3          30.5670    45.4430    19.1550 c3         1 LY1      -0.110400
      5 C4          29.1720    45.8970    18.6970 c3         1 LY1      -0.033100
      6 C4A         28.6970    45.2320    17.4300 ca         1 LY1      -0.062300
      7 C5          28.4910    46.0030    16.2900 ca         1 LY1      -0.103000
      8 C6          28.0850    45.4320    15.0930 ca         1 LY1      -0.093000
      9 C7          27.8800    44.0640    15.0280 ca         1 LY1       0.118000
     10 C8          28.0790    43.2740    16.1630 ca         1 LY1       0.135000
     11 C8A         28.4840    43.8430    17.3760 ca         1 LY1      -0.101300
     12 CL1         27.3780    43.3690    13.5100 cl         1 LY1      -0.181000
     13 CL2         27.8170    41.5480    16.0350 cl         1 LY1      -0.184000
     14 HC11        28.1340    43.4030    19.4380 h1         1 LY1       0.067700
     15 HC12        28.3690    41.9880    18.4360 h1         1 LY1       0.067700
     16 HN11        30.7280    42.7740    18.2650 hn         1 LY1       0.418000
     17 HC21        31.6050    43.8550    20.1680 h1         1 LY1       0.052700
     18 HC22        29.9670    44.1280    20.7420 h1         1 LY1       0.052700
     19 HC31        31.2470    45.4400    18.2980 hc         1 LY1       0.047700
     20 HC32        30.9560    46.1780    19.8660 hc         1 LY1       0.047700
     21 HC41        29.1820    46.9750    18.5310 hc         1 LY1       0.051700
     22 HC42        28.4560    45.7120    19.5050 hc         1 LY1       0.051700
     23 HC51        28.6530    47.0720    16.3350 ha         1 LY1       0.121000
     24 HC61        27.9300    46.0390    14.2120 ha         1 LY1       0.134000
@<TRIPOS>BOND
     1     1     2 1   
     2     1    11 1   
     3     1    14 1   
     4     1    15 1   
     5     2     3 1   
     6     2    16 1   
     7     3     4 1   
     8     3    17 1   
     9     3    18 1   
    10     4     5 1   
    11     4    19 1   
    12     4    20 1   
    13     5     6 1   
    14     5    21 1   
    15     5    22 1   
    16     6     7 ar  
    17     6    11 ar  
    18     7     8 ar  
    19     7    23 1   
    20     8     9 ar  
    21     8    24 1   
    22     9    10 ar  
    23     9    12 1   
    24    10    11 ar  
    25    10    13 1   
@<TRIPOS>SUBSTRUCTURE
     1 LY1         1 TEMP              0 ****  ****    0 ROOT
