@<TRIPOS>MOLECULE
LY2
   40    43     1     0     0
SMALL
bcc


@<TRIPOS>ATOM
      1 N14          0.0540     0.1340     2.3420 nh         1 LY2      -0.680400
      2 C15         -0.3250     0.2790     3.7380 c6         1 LY2       0.185300
      3 C19          1.4640     0.4210     2.0950 c6         1 LY2       0.185300
      4 C11         -0.8610     0.0550     1.3650 cc         1 LY2       0.413100
      5 C16          0.6250    -0.5160     4.6160 c6         1 LY2       0.115400
      6 O17          1.9690    -0.1610     4.3920 os         1 LY2      -0.392600
      7 C18          2.3240    -0.3890     3.0490 c6         1 LY2       0.115400
      8 C1          -2.4710    -0.2390    -3.3230 ca         1 LY2      -0.163000
      9 C2          -3.1370    -0.2490    -2.1150 ca         1 LY2      -0.044000
     10 C6          -1.0810    -0.1480    -3.3520 ca         1 LY2      -0.075000
     11 C3          -2.4230    -0.1620    -0.9200 ca         1 LY2      -0.215600
     12 C4          -1.0400    -0.0750    -0.9770 ca         1 LY2       0.167100
     13 C9          -3.0970    -0.1370     0.3960 c          1 LY2       0.613900
     14 C5          -0.3350    -0.0740    -2.1840 cp         1 LY2      -0.066000
     15 O12         -0.3000     0.0380     0.1530 os         1 LY2      -0.245200
     16 C20          1.1400     0.0340    -2.2250 cp         1 LY2      -0.029000
     17 C25          1.7390     1.0490    -2.9690 ca         1 LY2      -0.113000
     18 C24          3.1210     1.1560    -3.0340 ca         1 LY2      -0.132500
     19 C21          1.9530    -0.8790    -1.5520 ca         1 LY2      -0.113000
     20 C22          3.3340    -0.7710    -1.6170 ca         1 LY2      -0.132500
     21 C23          3.9230     0.2480    -2.3560 ca         1 LY2      -0.124000
     22 C10         -2.2260    -0.0130     1.5160 cd         1 LY2      -0.466200
     23 O13         -4.3230    -0.2100     0.4800 o          1 LY2      -0.571100
     24 H151        -0.3090     1.3380     4.0150 h1         1 LY2       0.066950
     25 H152        -1.3320    -0.0940     3.9080 h1         1 LY2       0.066950
     26 H191         1.7430     0.1690     1.0760 h1         1 LY2       0.066950
     27 H192         1.6470     1.4920     2.2360 h1         1 LY2       0.066950
     28 H161         0.3990    -0.3160     5.6640 h1         1 LY2       0.057950
     29 H162         0.4730    -1.5890     4.4350 h1         1 LY2       0.057950
     30 H181         3.3680    -0.0980     2.9260 h1         1 LY2       0.057950
     31 H182         2.2360    -1.4550     2.8000 h1         1 LY2       0.057950
     32 HC1         -3.0240    -0.3060    -4.2500 ha         1 LY2       0.141000
     33 HC2         -4.2160    -0.3180    -2.0790 ha         1 LY2       0.160000
     34 HC6         -0.5640    -0.1490    -4.3030 ha         1 LY2       0.140000
     35 H25          1.1190     1.7690    -3.4900 ha         1 LY2       0.135500
     36 H24          3.5720     1.9540    -3.6100 ha         1 LY2       0.131500
     37 H21          1.5070    -1.6890    -0.9900 ha         1 LY2       0.135500
     38 H22          3.9520    -1.4880    -1.0920 ha         1 LY2       0.131500
     39 H23          5.0010     0.3320    -2.4040 ha         1 LY2       0.132000
     40 H10         -2.6680     0.0240     2.5000 ha         1 LY2       0.159000
@<TRIPOS>BOND
     1     1     2 1   
     2     1     3 1   
     3     1     4 1   
     4     2     5 1   
     5     2    24 1   
     6     2    25 1   
     7     3     7 1   
     8     3    26 1   
     9     3    27 1   
    10     4    15 1   
    11     4    22 2   
    12     5     6 1   
    13     5    28 1   
    14     5    29 1   
    15     6     7 1   
    16     7    30 1   
    17     7    31 1   
    18     8     9 ar  
    19     8    10 ar  
    20     8    32 1   
    21     9    11 ar  
    22     9    33 1   
    23    10    14 ar  
    24    10    34 1   
    25    11    12 ar  
    26    11    13 1   
    27    12    14 ar  
    28    12    15 1   
    29    13    22 1   
    30    13    23 2   
    31    14    16 1   
    32    16    17 ar  
    33    16    19 ar  
    34    17    18 ar  
    35    17    35 1   
    36    18    21 ar  
    37    18    36 1   
    38    19    20 ar  
    39    19    37 1   
    40    20    21 ar  
    41    20    38 1   
    42    21    39 1   
    43    22    40 1   
@<TRIPOS>SUBSTRUCTURE
     1 LY2         1 TEMP              0 ****  ****    0 ROOT
