@<TRIPOS>MOLECULE
LY2
   40    43     1     0     0
SMALL
No Charge or Current Charge


@<TRIPOS>ATOM
      1 N14         -0.0470     0.5490     2.4870 nh         1 LY2      -0.680400
      2 C15         -0.3840    -0.0780     3.8070 c6         1 LY2       0.185300
      3 C19          1.3990     0.9390     2.3590 c6         1 LY2       0.185300
      4 C11         -0.8970     0.4860     1.4020 cc         1 LY2       0.413100
      5 C16          0.6370    -1.1930     4.1860 c6         1 LY2       0.138600
      6 O17          1.9960    -0.7000     4.1050 os         1 LY2      -0.439000
      7 C18          2.3410    -0.2240     2.7820 c6         1 LY2       0.138600
      8 C1          -2.4600    -0.5910    -3.2310 ca         1 LY2      -0.145000
      9 C2          -3.1620    -0.3140    -2.0470 ca         1 LY2      -0.026000
     10 C6          -1.0600    -0.4840    -3.2610 ca         1 LY2      -0.057000
     11 C3          -2.4560     0.0770    -0.8930 ca         1 LY2      -0.215600
     12 C4          -1.0590     0.1850    -0.9200 ca         1 LY2       0.167100
     13 C9          -3.1430     0.3590     0.3810 c          1 LY2       0.613900
     14 C5          -0.3320    -0.0970    -2.1090 cp         1 LY2      -0.066000
     15 O12         -0.3330     0.6700     0.1560 os         1 LY2      -0.245200
     16 C20          1.1610     0.0050    -2.1710 cp         1 LY2      -0.029000
     17 C25          1.7960     0.6880    -3.2370 ca         1 LY2      -0.095000
     18 C24          3.1970     0.7840    -3.3030 ca         1 LY2      -0.114500
     19 C21          1.9810    -0.5940    -1.1820 ca         1 LY2      -0.095000
     20 C22          3.3820    -0.4980    -1.2460 ca         1 LY2      -0.114500
     21 C23          3.9900     0.1930    -2.3060 ca         1 LY2      -0.106000
     22 C10         -2.2620     0.4960     1.5180 cd         1 LY2      -0.516200
     23 O13         -4.3600     0.4220     0.4890 o          1 LY2      -0.571100
     24 H151        -0.3820     0.6890     4.5950 h1         1 LY2       0.066950
     25 H152        -1.3860    -0.5270     3.7980 h1         1 LY2       0.066950
     26 H191         1.6580     1.2490     1.3370 h1         1 LY2       0.066950
     27 H192         1.6020     1.8050     3.0050 h1         1 LY2       0.066950
     28 H161         0.4410    -1.5450     5.2080 h1         1 LY2       0.057950
     29 H162         0.5220    -2.0480     3.5040 h1         1 LY2       0.057950
     30 H181         3.3830     0.1240     2.7850 h1         1 LY2       0.057950
     31 H182         2.2590    -1.0520     2.0650 h1         1 LY2       0.057950
     32 HC1         -3.0010    -0.8940    -4.1240 ha         1 LY2       0.123000
     33 HC2         -4.2470    -0.4060    -2.0300 ha         1 LY2       0.142000
     34 HC6         -0.5300    -0.7110    -4.1830 ha         1 LY2       0.122000
     35 H25          1.1940     1.1560    -4.0130 ha         1 LY2       0.117500
     36 H24          3.6670     1.3180    -4.1260 ha         1 LY2       0.113500
     37 H21          1.5230    -1.1450    -0.3640 ha         1 LY2       0.117500
     38 H22          3.9940    -0.9630    -0.4770 ha         1 LY2       0.113500
     39 H23          5.0740     0.2670    -2.3570 ha         1 LY2       0.114000
     40 H10         -2.7640     0.5720     2.4710 ha         1 LY2       0.209000
@<TRIPOS>BOND
     1     1     2 1   
     2     1     3 1   
     3     1     4 1   
     4     2     5 1   
     5     2    24 1   
     6     2    25 1   
     7     3     7 1   
     8     3    26 1   
     9     3    27 1   
    10     4    15 1   
    11     4    22 2   
    12     5     6 1   
    13     5    28 1   
    14     5    29 1   
    15     6     7 1   
    16     7    30 1   
    17     7    31 1   
    18     8     9 ar  
    19     8    10 ar  
    20     8    32 1   
    21     9    11 ar  
    22     9    33 1   
    23    10    14 ar  
    24    10    34 1   
    25    11    12 ar  
    26    11    13 1   
    27    12    14 ar  
    28    12    15 1   
    29    13    22 1   
    30    13    23 2   
    31    14    16 1   
    32    16    17 ar  
    33    16    19 ar  
    34    17    18 ar  
    35    17    35 1   
    36    18    21 ar  
    37    18    36 1   
    38    19    20 ar  
    39    19    37 1   
    40    20    21 ar  
    41    20    38 1   
    42    21    39 1   
    43    22    40 1   
@<TRIPOS>SUBSTRUCTURE
     1 LY2         1 TEMP              0 ****  ****    0 ROOT
