@<TRIPOS>MOLECULE
LY3
   53    56     1     0     0
SMALL
No Charge or Current Charge


@<TRIPOS>ATOM
      1 N1          48.5260    37.3000    24.0410 ns         1 LY3      -0.450400
      2 C1          49.2730    36.3760    23.4060 cc         1 LY3       0.724800
      3 N2          48.9210    35.6200    22.3930 nd         1 LY3      -0.725100
      4 C2          47.6210    35.8610    21.9750 cd         1 LY3       0.167400
      5 C3          46.8080    36.7810    22.5610 cc         1 LY3      -0.286600
      6 C4          47.2520    37.5930    23.7010 c          1 LY3       0.621600
      7 N3          46.9220    35.2640    20.9410 na         1 LY3      -0.122000
      8 C5          45.6400    35.8340    20.8760 cd         1 LY3      -0.215000
      9 C6          45.5620    36.7800    21.8730 cc         1 LY3      -0.051300
     10 C7          44.3820    37.6760    22.1640 c3         1 LY3      -0.005100
     11 C8          44.3380    38.9340    21.2670 c3         1 LY3      -0.020100
     12 C9          45.5540    39.8390    21.4370 ca         1 LY3      -0.077300
     13 C10         45.5320    40.8950    22.3640 ca         1 LY3      -0.115000
     14 C11         46.6570    41.7210    22.5360 ca         1 LY3      -0.075000
     15 C12         47.8340    41.5040    21.7780 ca         1 LY3      -0.130600
     16 C13         47.8430    40.4420    20.8450 ca         1 LY3      -0.075000
     17 C14         46.7150    39.6210    20.6750 ca         1 LY3      -0.115000
     18 C15         49.0710    42.3690    21.9330 c          1 LY3       0.595700
     19 O1          46.5990    38.4240    24.3090 o          1 LY3      -0.538000
     20 N4          50.4980    36.2010    23.8690 nv         1 LY3      -1.027200
     21 C16         50.0760    44.3610    23.1680 c3         1 LY3      -0.036300
     22 C17         50.2270    45.4200    22.0420 c3         1 LY3      -0.062400
     23 C18         49.8580    45.0180    24.5690 c          1 LY3       0.707000
     24 O2          48.7180    45.0930    25.0100 o          1 LY3      -0.722000
     25 O3          50.8480    45.3300    25.2170 o          1 LY3      -0.722000
     26 N5          49.0070    43.3740    22.8750 ns         1 LY3      -0.464900
     27 O4          50.0810    42.1890    21.2640 o          1 LY3      -0.662100
     28 C19         48.9450    46.2400    21.7440 c3         1 LY3      -0.101700
     29 C20         49.1360    47.2570    20.6520 cc         1 LY3       0.527300
     30 N6          48.8820    47.0190    19.3860 nd         1 LY3      -0.533800
     31 N7          49.2210    48.2400    18.8610 na         1 LY3       0.082600
     32 N8          49.6520    49.1410    19.8020 nd         1 LY3      -0.201800
     33 N9          49.5940    48.5080    20.9380 nc         1 LY3      -0.379000
     34 HN1         48.9250    37.8260    24.7990 hn         1 LY3       0.328500
     35 HN3         47.2900    34.5390    20.3360 hn         1 LY3       0.352000
     36 HC5         44.9050    35.5380    20.1360 h4         1 LY3       0.143000
     37 HC71        43.4570    37.1080    22.0040 hc         1 LY3       0.051200
     38 HC72        44.3620    37.9770    23.2170 hc         1 LY3       0.051200
     39 HC81        44.2500    38.6190    20.2200 hc         1 LY3       0.037700
     40 HC82        43.4210    39.4930    21.4900 hc         1 LY3       0.037700
     41 H10         44.6410    41.0740    22.9630 ha         1 LY3       0.103500
     42 H11         46.5930    42.5230    23.2660 ha         1 LY3       0.130500
     43 H13         48.7300    40.2460    20.2450 ha         1 LY3       0.130500
     44 H14         46.7490    38.8060    19.9570 ha         1 LY3       0.103500
     45 HN41        50.9500    35.3780    23.4920 hn         1 LY3       0.487500
     46 HN42        50.6450    36.3580    24.8580 hn         1 LY3       0.487500
     47 H16         51.0230    43.8080    23.2360 h1         1 LY3       0.061700
     48 H171        51.0370    46.1080    22.3130 hc         1 LY3       0.048200
     49 H172        50.5470    44.9190    21.1200 hc         1 LY3       0.048200
     50 HN5         48.1520    43.4450    23.4140 hn         1 LY3       0.341500
     51 H191        48.1330    45.5610    21.4590 hc         1 LY3       0.076700
     52 H192        48.6150    46.7510    22.6550 hc         1 LY3       0.076700
     53 HN7         49.1620    48.4690    17.8670 hn         1 LY3       0.389000
@<TRIPOS>BOND
     1     1     2 1   
     2     1     6 1   
     3     1    34 1   
     4     2     3 2   
     5     2    20 1   
     6     3     4 1   
     7     4     5 2   
     8     4     7 1   
     9     5     6 1   
    10     5     9 1   
    11     6    19 2   
    12     7     8 1   
    13     7    35 1   
    14     8     9 2   
    15     8    36 1   
    16     9    10 1   
    17    10    11 1   
    18    10    37 1   
    19    10    38 1   
    20    11    12 1   
    21    11    39 1   
    22    11    40 1   
    23    12    13 ar  
    24    12    17 ar  
    25    13    14 ar  
    26    13    41 1   
    27    14    15 ar  
    28    14    42 1   
    29    15    16 ar  
    30    15    18 1   
    31    16    17 ar  
    32    16    43 1   
    33    17    44 1   
    34    18    26 1   
    35    18    27 2   
    36    20    45 1   
    37    20    46 1   
    38    21    22 1   
    39    21    23 1   
    40    21    26 1   
    41    21    47 1   
    42    22    28 1   
    43    22    48 1   
    44    22    49 1   
    45    23    24 1   
    46    23    25 1   
    47    26    50 1   
    48    28    29 1   
    49    28    51 1   
    50    28    52 1   
    51    29    30 2   
    52    29    33 1   
    53    30    31 1   
    54    31    32 1   
    55    31    53 1   
    56    32    33 2   
@<TRIPOS>SUBSTRUCTURE
     1 LY3         1 TEMP              0 ****  ****    0 ROOT
