@<TRIPOS>MOLECULE
LY3
   53    56     1     0     0
SMALL
abcg2


@<TRIPOS>ATOM
      1 N1          48.7470    37.2490    23.8550 ns         1 LY3      -0.450400
      2 C1          49.5070    36.4350    23.0580 cc         1 LY3       0.724800
      3 N2          49.0170    35.8040    22.0190 nd         1 LY3      -0.725100
      4 C2          47.7060    36.0520    21.7880 cd         1 LY3       0.167400
      5 C3          46.8430    36.8740    22.5300 cc         1 LY3      -0.286600
      6 C4          47.3760    37.5220    23.6810 c          1 LY3       0.621600
      7 N3          46.9900    35.5270    20.7630 na         1 LY3      -0.122000
      8 C5          45.6840    35.9980    20.8220 cd         1 LY3      -0.215000
      9 C6          45.5520    36.8380    21.8960 cc         1 LY3      -0.051300
     10 C7          44.3400    37.6490    22.2390 c3         1 LY3      -0.005100
     11 C8          44.2270    38.9520    21.4060 c3         1 LY3      -0.020100
     12 C9          45.3930    39.8800    21.6040 ca         1 LY3      -0.077300
     13 C10         45.3670    40.8560    22.6010 ca         1 LY3      -0.115000
     14 C11         46.4660    41.6700    22.8390 ca         1 LY3      -0.075000
     15 C12         47.6320    41.5270    22.0820 ca         1 LY3      -0.130600
     16 C13         47.6590    40.5550    21.0810 ca         1 LY3      -0.075000
     17 C14         46.5550    39.7520    20.8410 ca         1 LY3      -0.115000
     18 C15         48.8610    42.3610    22.2890 c          1 LY3       0.595700
     19 O1          46.8060    38.2460    24.5010 o          1 LY3      -0.538000
     20 N4          50.8280    36.3370    23.3600 nv         1 LY3      -1.027200
     21 C16         49.7930    44.3920    23.3450 c3         1 LY3      -0.036300
     22 C17         50.1780    45.3050    22.1700 c3         1 LY3      -0.062400
     23 C18         49.3800    45.2260    24.5870 c          1 LY3       0.707000
     24 O2          48.1780    45.1640    24.9470 o          1 LY3      -0.722000
     25 O3          50.2920    45.9060    25.1100 o          1 LY3      -0.722000
     26 N5          48.7110    43.4900    22.9970 ns         1 LY3      -0.464900
     27 O4          49.9510    42.0180    21.8120 o          1 LY3      -0.662100
     28 C19         49.0240    46.2110    21.7180 c3         1 LY3      -0.101700
     29 C20         49.3880    47.0310    20.5340 cc         1 LY3       0.527300
     30 N6          49.1730    46.6710    19.2710 nd         1 LY3      -0.533800
     31 N7          49.6910    47.6880    18.6020 na         1 LY3       0.082600
     32 N8          50.1970    48.6320    19.3600 nd         1 LY3      -0.201800
     33 N9          50.0160    48.2330    20.5960 nc         1 LY3      -0.379000
     34 HN1         49.1790    37.7070    24.6470 hn         1 LY3       0.328500
     35 HN3         47.3530    34.8840    20.0770 hn         1 LY3       0.352000
     36 HC5         44.9620    35.7050    20.0780 h4         1 LY3       0.143000
     37 HC71        43.4380    37.0600    22.0580 hc         1 LY3       0.051200
     38 HC72        44.3560    37.9050    23.2980 hc         1 LY3       0.051200
     39 HC81        44.1490    38.6790    20.3510 hc         1 LY3       0.037700
     40 HC82        43.3010    39.4590    21.6860 hc         1 LY3       0.037700
     41 H10         44.4780    40.9700    23.2100 ha         1 LY3       0.103500
     42 H11         46.4050    42.3960    23.6390 ha         1 LY3       0.130500
     43 H13         48.5570    40.4410    20.4890 ha         1 LY3       0.130500
     44 H14         46.5960    39.0040    20.0590 ha         1 LY3       0.103500
     45 HN41        51.3270    35.5900    22.9010 hn         1 LY3       0.487500
     46 HN42        51.1350    36.5550    24.2950 hn         1 LY3       0.487500
     47 H16         50.6710    43.8010    23.6120 h1         1 LY3       0.061700
     48 H171        51.0300    45.9150    22.4740 hc         1 LY3       0.048200
     49 H172        50.4990    44.6810    21.3340 hc         1 LY3       0.048200
     50 HN5         47.8300    43.7360    23.4240 hn         1 LY3       0.341500
     51 H191        48.1560    45.6010    21.4650 hc         1 LY3       0.076700
     52 H192        48.7360    46.8830    22.5280 hc         1 LY3       0.076700
     53 HN7         49.6910    47.7440    17.5910 hn         1 LY3       0.389000
@<TRIPOS>BOND
     1     1     2 1   
     2     1     6 1   
     3     1    34 1   
     4     2     3 2   
     5     2    20 1   
     6     3     4 1   
     7     4     5 2   
     8     4     7 1   
     9     5     6 1   
    10     5     9 1   
    11     6    19 2   
    12     7     8 1   
    13     7    35 1   
    14     8     9 2   
    15     8    36 1   
    16     9    10 1   
    17    10    11 1   
    18    10    37 1   
    19    10    38 1   
    20    11    12 1   
    21    11    39 1   
    22    11    40 1   
    23    12    13 ar  
    24    12    17 ar  
    25    13    14 ar  
    26    13    41 1   
    27    14    15 ar  
    28    14    42 1   
    29    15    16 ar  
    30    15    18 1   
    31    16    17 ar  
    32    16    43 1   
    33    17    44 1   
    34    18    26 1   
    35    18    27 2   
    36    20    45 1   
    37    20    46 1   
    38    21    22 1   
    39    21    23 1   
    40    21    26 1   
    41    21    47 1   
    42    22    28 1   
    43    22    48 1   
    44    22    49 1   
    45    23    24 1   
    46    23    25 1   
    47    26    50 1   
    48    28    29 1   
    49    28    51 1   
    50    28    52 1   
    51    29    30 2   
    52    29    33 1   
    53    30    31 1   
    54    31    32 1   
    55    31    53 1   
    56    32    33 2   
@<TRIPOS>SUBSTRUCTURE
     1 LY3         1 TEMP              0 ****  ****    0 ROOT
