@<TRIPOS>MOLECULE
LY4
   63    68     1     0     0
SMALL
No Charge or Current Charge


@<TRIPOS>ATOM
      1 CBD         -2.4310     2.8220     0.0110 c3         1 LY4      -0.093400
      2 CBB         -2.6720     1.6110     0.9520 c3         1 LY4       0.083600
      3 NAW         -2.4440     0.2920     0.3350 na         1 LY4      -0.078700
      4 CAV         -1.2860    -0.4960     0.4370 cc         1 LY4      -0.119100
      5 CAX         -3.4530    -0.4110    -0.3140 ca         1 LY4      -0.048200
      6 CAY         -4.7540    -0.0020    -0.6500 ca         1 LY4      -0.129000
      7 CAZ         -5.5740    -0.9070    -1.3550 ca         1 LY4      -0.094000
      8 CAP         -5.0800    -2.1790    -1.7260 ca         1 LY4      -0.138000
      9 CAO         -3.7650    -2.5620    -1.3870 ca         1 LY4      -0.051000
     10 CAN         -2.9830    -1.6560    -0.6530 ca         1 LY4      -0.066800
     11 CAM         -1.6060    -1.6970    -0.1960 cd         1 LY4      -0.097200
     12 CAH         -0.6800    -2.8180    -0.1310 cd         1 LY4      -0.089200
     13 CAE         -1.0120    -4.2620    -0.0310 c          1 LY4       0.568200
     14 OAF         -2.0880    -4.8340    -0.0600 o          1 LY4      -0.482000
     15 NAD          0.1820    -4.8500     0.2090 ns         1 LY4      -0.496500
     16 CAC          1.2650    -4.0440     0.2590 c          1 LY4       0.565200
     17 OAB          2.4150    -4.4290     0.3930 o          1 LY4      -0.485000
     18 CAG          0.7110    -2.6930    -0.0050 cc         1 LY4      -0.031200
     19 CAL          1.5030    -1.5070    -0.2880 cc         1 LY4      -0.129200
     20 CAU          1.0630    -0.5150    -1.1610 cd         1 LY4      -0.090100
     21 CAK          2.8370    -1.1200     0.1200 ca         1 LY4      -0.054800
     22 CAJ          3.7410    -1.7000     1.0270 ca         1 LY4      -0.054000
     23 CAI          4.9680    -1.0450     1.2630 ca         1 LY4      -0.136000
     24 CAQ          5.2610     0.1770     0.6190 ca         1 LY4      -0.097000
     25 CAR          4.3230     0.7610    -0.2550 ca         1 LY4      -0.126000
     26 CAS          3.1110     0.0870    -0.4810 ca         1 LY4      -0.059200
     27 NAT          2.0390     0.4880    -1.2650 na         1 LY4      -0.074700
     28 CBA          1.8940     1.8060    -1.9040 c3         1 LY4       0.073600
     29 CBC          1.2120     2.8490    -0.9940 c3         1 LY4       0.152600
     30 OBE         -0.1390     2.4180    -0.7030 os         1 LY4      -0.461000
     31 CBF         -0.9870     3.3940    -0.0500 c3         1 LY4       0.182300
     32 CBG         -0.4240     3.7780     1.3640 c3         1 LY4       0.125800
     33 NBH          0.6850     4.7780     1.4120 n3         1 LY4      -0.724600
     34 CBI          0.3050     6.1200     0.9060 c3         1 LY4       0.148100
     35 CBJ          1.3120     4.8510     2.7500 c3         1 LY4       0.148100
     36 HBD1        -3.0840     3.6350     0.3490 hc         1 LY4       0.064700
     37 HBD2        -2.7690     2.5730    -1.0020 hc         1 LY4       0.064700
     38 HBB1        -2.0480     1.6930     1.8500 h1         1 LY4       0.056700
     39 HBB2        -3.7120     1.6430     1.2980 h1         1 LY4       0.056700
     40 HAV         -0.4060    -0.1680     0.9780 h4         1 LY4       0.208000
     41 HAY         -5.1250     0.9860    -0.3880 ha         1 LY4       0.108000
     42 HAZ         -6.5860    -0.6180    -1.6300 ha         1 LY4       0.108000
     43 HAP         -5.7120    -2.8610    -2.2900 ha         1 LY4       0.111000
     44 HAO         -3.3750    -3.5200    -1.7130 ha         1 LY4       0.119000
     45 HAD          0.2610    -5.8480     0.3360 hn         1 LY4       0.346500
     46 HAU          0.1360    -0.4410    -1.7190 h4         1 LY4       0.222000
     47 HAJ          3.5070    -2.6100     1.5670 ha         1 LY4       0.124000
     48 HAI          5.6850    -1.4760     1.9580 ha         1 LY4       0.111000
     49 HAQ          6.2070     0.6790     0.8130 ha         1 LY4       0.109000
     50 HAR          4.5410     1.7130    -0.7320 ha         1 LY4       0.110000
     51 HBA1         2.8820     2.1750    -2.2020 h1         1 LY4       0.061200
     52 HBA2         1.2990     1.6870    -2.8180 h1         1 LY4       0.061200
     53 HBC1         1.8040     2.9480    -0.0760 h1         1 LY4       0.048200
     54 HBC2         1.2070     3.8180    -1.5090 h1         1 LY4       0.048200
     55 HBF         -1.0440     4.2980    -0.6680 h1         1 LY4       0.038700
     56 HBG1        -0.0930     2.8470     1.8460 h1         1 LY4       0.040200
     57 HBG2        -1.2590     4.1570     1.9690 h1         1 LY4       0.040200
     58 HBI1        -0.0080     6.0780    -0.1440 h1         1 LY4       0.033700
     59 HBI2        -0.5190     6.5420     1.4970 h1         1 LY4       0.033700
     60 HBI3         1.1570     6.8100     0.9660 h1         1 LY4       0.033700
     61 HBJ1         0.5960     5.2170     3.4990 h1         1 LY4       0.033700
     62 HBJ2         1.6670     3.8620     3.0680 h1         1 LY4       0.033700
     63 HBJ3         2.1750     5.5300     2.7400 h1         1 LY4       0.033700
@<TRIPOS>BOND
     1     1     2 1   
     2     1    31 1   
     3     1    36 1   
     4     1    37 1   
     5     2     3 1   
     6     2    38 1   
     7     2    39 1   
     8     3     4 1   
     9     3     5 1   
    10     4    11 2   
    11     4    40 1   
    12     5     6 ar  
    13     5    10 ar  
    14     6     7 ar  
    15     6    41 1   
    16     7     8 ar  
    17     7    42 1   
    18     8     9 ar  
    19     8    43 1   
    20     9    10 ar  
    21     9    44 1   
    22    10    11 1   
    23    11    12 1   
    24    12    13 1   
    25    12    18 2   
    26    13    14 2   
    27    13    15 1   
    28    15    16 1   
    29    15    45 1   
    30    16    17 2   
    31    16    18 1   
    32    18    19 1   
    33    19    20 2   
    34    19    21 1   
    35    20    27 1   
    36    20    46 1   
    37    21    22 ar  
    38    21    26 ar  
    39    22    23 ar  
    40    22    47 1   
    41    23    24 ar  
    42    23    48 1   
    43    24    25 ar  
    44    24    49 1   
    45    25    26 ar  
    46    25    50 1   
    47    26    27 1   
    48    27    28 1   
    49    28    29 1   
    50    28    51 1   
    51    28    52 1   
    52    29    30 1   
    53    29    53 1   
    54    29    54 1   
    55    30    31 1   
    56    31    32 1   
    57    31    55 1   
    58    32    33 1   
    59    32    56 1   
    60    32    57 1   
    61    33    34 1   
    62    33    35 1   
    63    34    58 1   
    64    34    59 1   
    65    34    60 1   
    66    35    61 1   
    67    35    62 1   
    68    35    63 1   
@<TRIPOS>SUBSTRUCTURE
     1 LY4         1 TEMP              0 ****  ****    0 ROOT
