@<TRIPOS>MOLECULE
LY4
   63    68     1     0     0
SMALL
abcg2


@<TRIPOS>ATOM
      1 CBD         -2.2930     2.9310    -0.6630 c3         1 LY4      -0.093400
      2 CBB         -3.0740     1.8970     0.1520 c3         1 LY4       0.083600
      3 NAW         -2.5870     0.5360     0.0680 na         1 LY4      -0.078700
      4 CAV         -1.6950    -0.0470     0.9110 cc         1 LY4      -0.119100
      5 CAX         -2.9540    -0.3790    -0.8840 ca         1 LY4      -0.048200
      6 CAY         -3.8240    -0.2530    -1.9670 ca         1 LY4      -0.129000
      7 CAZ         -4.0090    -1.3630    -2.7680 ca         1 LY4      -0.094000
      8 CAP         -3.3420    -2.5710    -2.5100 ca         1 LY4      -0.138000
      9 CAO         -2.4760    -2.6910    -1.4400 ca         1 LY4      -0.051000
     10 CAN         -2.2770    -1.5850    -0.6090 ca         1 LY4      -0.066800
     11 CAM         -1.4600    -1.3460     0.5450 cd         1 LY4      -0.097200
     12 CAH         -0.5210    -2.2850     1.1320 cd         1 LY4      -0.089200
     13 CAE         -0.9620    -3.5480     1.7860 c          1 LY4       0.568200
     14 OAF         -2.0910    -3.9310     1.9620 o          1 LY4      -0.482000
     15 NAD          0.1860    -4.2190     2.1540 ns         1 LY4      -0.496500
     16 CAC          1.3100    -3.5120     1.8030 c          1 LY4       0.565200
     17 OAB          2.4490    -3.8340     2.0260 o          1 LY4      -0.485000
     18 CAG          0.8290    -2.2680     1.1140 cc         1 LY4      -0.031200
     19 CAL          1.7060    -1.2940     0.5210 cc         1 LY4      -0.129200
     20 CAU          1.4640     0.0590     0.5170 cd         1 LY4      -0.090100
     21 CAK          2.8490    -1.4940    -0.3340 ca         1 LY4      -0.054800
     22 CAJ          3.5670    -2.6070    -0.7810 ca         1 LY4      -0.054000
     23 CAI          4.6130    -2.4180    -1.6650 ca         1 LY4      -0.136000
     24 CAQ          4.9580    -1.1390    -2.1240 ca         1 LY4      -0.097000
     25 CAR          4.2580    -0.0210    -1.7100 ca         1 LY4      -0.126000
     26 CAS          3.2080    -0.2170    -0.8170 ca         1 LY4      -0.059200
     27 NAT          2.3500     0.7070    -0.2720 na         1 LY4      -0.074700
     28 CBA          2.3530     2.1200    -0.6060 c3         1 LY4       0.073600
     29 CBC          1.3220     2.9390     0.1420 c3         1 LY4       0.152600
     30 OBE          0.0200     2.5170    -0.2010 os         1 LY4      -0.461000
     31 CBF         -1.0030     3.4860    -0.0620 c3         1 LY4       0.182300
     32 CBG         -1.2100     3.9360     1.3870 c3         1 LY4       0.125800
     33 NBH         -0.2330     4.9030     1.8490 n3         1 LY4      -0.724600
     34 CBI         -0.4950     6.2310     1.3390 c3         1 LY4       0.148100
     35 CBJ         -0.1430     4.9150     3.2920 c3         1 LY4       0.148100
     36 HBD1        -2.9610     3.7840    -0.7990 hc         1 LY4       0.064700
     37 HBD2        -2.0950     2.5410    -1.6650 hc         1 LY4       0.064700
     38 HBB1        -3.1230     2.1740     1.2050 h1         1 LY4       0.056700
     39 HBB2        -4.1080     1.8920    -0.1950 h1         1 LY4       0.056700
     40 HAV         -1.3100     0.4990     1.7580 h4         1 LY4       0.208000
     41 HAY         -4.3390     0.6750    -2.1820 ha         1 LY4       0.108000
     42 HAZ         -4.6790    -1.2980    -3.6150 ha         1 LY4       0.108000
     43 HAP         -3.5110    -3.4190    -3.1610 ha         1 LY4       0.111000
     44 HAO         -1.9600    -3.6250    -1.2540 ha         1 LY4       0.119000
     45 HAD          0.2000    -5.1010     2.6470 hn         1 LY4       0.346500
     46 HAU          0.7180     0.5990     1.0670 h4         1 LY4       0.222000
     47 HAJ          3.3160    -3.6040    -0.4480 ha         1 LY4       0.124000
     48 HAI          5.1780    -3.2750    -2.0100 ha         1 LY4       0.111000
     49 HAQ          5.7830    -1.0260    -2.8150 ha         1 LY4       0.109000
     50 HAR          4.5200     0.9650    -2.0720 ha         1 LY4       0.110000
     51 HBA1         3.3350     2.5370    -0.3730 h1         1 LY4       0.061200
     52 HBA2         2.2010     2.2260    -1.6830 h1         1 LY4       0.061200
     53 HBC1         1.4960     2.8740     1.2210 h1         1 LY4       0.048200
     54 HBC2         1.4870     3.9850    -0.1380 h1         1 LY4       0.048200
     55 HBF         -0.7290     4.3630    -0.6660 h1         1 LY4       0.038700
     56 HBG1        -1.1540     3.0540     2.0310 h1         1 LY4       0.040200
     57 HBG2        -2.2370     4.3280     1.4980 h1         1 LY4       0.040200
     58 HBI1        -0.4980     6.2430     0.2480 h1         1 LY4       0.033700
     59 HBI2        -1.4620     6.6390     1.6770 h1         1 LY4       0.033700
     60 HBI3         0.2880     6.9160     1.6670 h1         1 LY4       0.033700
     61 HBJ1        -1.0820     5.2090     3.7880 h1         1 LY4       0.033700
     62 HBJ2         0.1340     3.9260     3.6590 h1         1 LY4       0.033700
     63 HBJ3         0.6300     5.6170     3.6100 h1         1 LY4       0.033700
@<TRIPOS>BOND
     1     1     2 1   
     2     1    31 1   
     3     1    36 1   
     4     1    37 1   
     5     2     3 1   
     6     2    38 1   
     7     2    39 1   
     8     3     4 1   
     9     3     5 1   
    10     4    11 2   
    11     4    40 1   
    12     5     6 ar  
    13     5    10 ar  
    14     6     7 ar  
    15     6    41 1   
    16     7     8 ar  
    17     7    42 1   
    18     8     9 ar  
    19     8    43 1   
    20     9    10 ar  
    21     9    44 1   
    22    10    11 1   
    23    11    12 1   
    24    12    13 1   
    25    12    18 2   
    26    13    14 2   
    27    13    15 1   
    28    15    16 1   
    29    15    45 1   
    30    16    17 2   
    31    16    18 1   
    32    18    19 1   
    33    19    20 2   
    34    19    21 1   
    35    20    27 1   
    36    20    46 1   
    37    21    22 ar  
    38    21    26 ar  
    39    22    23 ar  
    40    22    47 1   
    41    23    24 ar  
    42    23    48 1   
    43    24    25 ar  
    44    24    49 1   
    45    25    26 ar  
    46    25    50 1   
    47    26    27 1   
    48    27    28 1   
    49    28    29 1   
    50    28    51 1   
    51    28    52 1   
    52    29    30 1   
    53    29    53 1   
    54    29    54 1   
    55    30    31 1   
    56    31    32 1   
    57    31    55 1   
    58    32    33 1   
    59    32    56 1   
    60    32    57 1   
    61    33    34 1   
    62    33    35 1   
    63    34    58 1   
    64    34    59 1   
    65    34    60 1   
    66    35    61 1   
    67    35    62 1   
    68    35    63 1   
@<TRIPOS>SUBSTRUCTURE
     1 LY4         1 TEMP              0 ****  ****    0 ROOT
