@<TRIPOS>MOLECULE
LY5
   46    48     1     0     0
SMALL
bcc


@<TRIPOS>ATOM
      1 F2          -5.2910     0.7070    -0.7060 f          1 LY5      -0.266300
      2 C15         -4.1650     0.0490    -1.1350 c5         1 LY5       0.384600
      3 F1          -4.3800    -0.1750    -2.4650 f          1 LY5      -0.266300
      4 C14         -3.9700    -1.2180    -0.3400 c5         1 LY5      -0.106400
      5 C12         -3.1130    -0.7290     0.8250 c5         1 LY5       0.050500
      6 C13         -2.4470    -1.9100     1.5610 c          1 LY5       0.932600
      7 O4          -1.2310    -2.1040     1.4020 o          1 LY5      -0.819300
      8 O3          -3.2360    -2.5930     2.2470 o          1 LY5      -0.819300
      9 C16         -2.9250     0.9010    -0.8730 c5         1 LY5       0.129800
     10 N2          -2.2010     0.1860     0.1630 n3         1 LY5      -0.702600
     11 C11         -1.4330     1.0350     1.0380 c3         1 LY5       0.196800
     12 C7          -0.2200     1.6660     0.3630 c6         1 LY5      -0.055700
     13 C6           0.7210     0.6080    -0.2090 c6         1 LY5      -0.067400
     14 C8           0.5230     2.5570     1.3540 c6         1 LY5      -0.069400
     15 C9           1.7730     3.1740     0.7360 c6         1 LY5      -0.063400
     16 C4           2.7160     2.1430     0.1180 c6         1 LY5      -0.055700
     17 C5           1.9670     1.2180    -0.8510 c6         1 LY5      -0.055700
     18 C3           3.4800     1.3260     1.1570 c6         1 LY5       0.173800
     19 N1           4.3920     0.4200     0.4880 n7         1 LY5      -0.810200
     20 C1           3.6910    -0.5680    -0.3140 c6         1 LY5       0.033500
     21 C2           2.9190     0.1550    -1.4110 c6         1 LY5      -0.042400
     22 C10          4.6690    -1.6370    -0.8460 c          1 LY5       0.936600
     23 O1           5.7080    -1.8290    -0.1800 o          1 LY5      -0.849300
     24 O2           4.3250    -2.2600    -1.8690 o          1 LY5      -0.849300
     25 H141        -4.9090    -1.6790    -0.0390 hc         1 LY5       0.073700
     26 H142        -3.4040    -1.9350    -0.9400 hc         1 LY5       0.073700
     27 H12         -3.7660    -0.2070     1.5500 h1         1 LY5       0.011700
     28 H161        -2.3290     1.0140    -1.7830 h1         1 LY5       0.037700
     29 H162        -3.2350     1.9090    -0.5610 h1         1 LY5       0.037700
     30 H111        -2.0630     1.8370     1.4660 h1         1 LY5       0.028700
     31 H112        -1.0810     0.4300     1.8750 h1         1 LY5       0.028700
     32 H7          -0.5640     2.3030    -0.4650 hc         1 LY5       0.017700
     33 H61          0.9850    -0.0850     0.5960 hc         1 LY5       0.070700
     34 H62          0.1870     0.0050    -0.9470 hc         1 LY5       0.070700
     35 H81         -0.1360     3.3520     1.7160 hc         1 LY5       0.024700
     36 H82          0.7930     1.9640     2.2350 hc         1 LY5       0.024700
     37 H91          1.4690     3.8780    -0.0450 hc         1 LY5       0.013200
     38 H92          2.3090     3.7670     1.4850 hc         1 LY5       0.013200
     39 H4           3.4750     2.6860    -0.4600 hc         1 LY5       0.037700
     40 H5           1.6200     1.8320    -1.6940 hc         1 LY5       0.009700
     41 H31          4.0560     2.0040     1.7930 h1         1 LY5       0.004200
     42 H32          2.7760     0.7970     1.8210 h1         1 LY5       0.004200
     43 HN1          4.9740    -0.0610     1.1600 hn         1 LY5       0.370800
     44 H1           2.9580    -1.1280     0.3020 h1         1 LY5       0.023700
     45 H21          2.3640    -0.5670    -2.0130 hc         1 LY5       0.042700
     46 H22          3.6370     0.6400    -2.0820 hc         1 LY5       0.042700
@<TRIPOS>BOND
     1     1     2 1   
     2     2     3 1   
     3     2     4 1   
     4     2     9 1   
     5     4     5 1   
     6     4    25 1   
     7     4    26 1   
     8     5     6 1   
     9     5    10 1   
    10     5    27 1   
    11     6     7 1   
    12     6     8 1   
    13     9    10 1   
    14     9    28 1   
    15     9    29 1   
    16    10    11 1   
    17    11    12 1   
    18    11    30 1   
    19    11    31 1   
    20    12    13 1   
    21    12    14 1   
    22    12    32 1   
    23    13    17 1   
    24    13    33 1   
    25    13    34 1   
    26    14    15 1   
    27    14    35 1   
    28    14    36 1   
    29    15    16 1   
    30    15    37 1   
    31    15    38 1   
    32    16    17 1   
    33    16    18 1   
    34    16    39 1   
    35    17    21 1   
    36    17    40 1   
    37    18    19 1   
    38    18    41 1   
    39    18    42 1   
    40    19    20 1   
    41    19    43 1   
    42    20    21 1   
    43    20    22 1   
    44    20    44 1   
    45    21    45 1   
    46    21    46 1   
    47    22    23 1   
    48    22    24 1   
@<TRIPOS>SUBSTRUCTURE
     1 LY5         1 TEMP              0 ****  ****    0 ROOT
