@<TRIPOS>MOLECULE
LY5
   46    48     1     0     0
SMALL
No Charge or Current Charge


@<TRIPOS>ATOM
      1 F2          -5.2370     0.5000    -1.5000 f          1 LY5      -0.145000
      2 C15         -3.9910    -0.1250    -1.4590 c5         1 LY5       0.142000
      3 F1          -3.6960    -0.5700    -2.7470 f          1 LY5      -0.145000
      4 C14         -3.9930    -1.3040    -0.4420 c5         1 LY5      -0.106400
      5 C12         -3.4020    -0.6330     0.8310 c5         1 LY5       0.050500
      6 C13         -3.0620    -1.7060     1.9570 c          1 LY5       0.722000
      7 O4          -2.7140    -2.8420     1.6500 o          1 LY5      -0.714000
      8 O3          -3.2040    -1.3850     3.1310 o          1 LY5      -0.714000
      9 C16         -2.8920     0.8510    -0.9140 c5         1 LY5       0.129800
     10 N2          -2.2570     0.1020     0.2040 n3         1 LY5      -0.702600
     11 C11         -1.4190     0.9030     1.1290 c3         1 LY5       0.196800
     12 C7          -0.1880     1.6120     0.4810 c6         1 LY5      -0.055700
     13 C6           0.7780     0.6030    -0.2060 c6         1 LY5      -0.067400
     14 C8           0.5790     2.4590     1.5330 c6         1 LY5      -0.069400
     15 C9           1.7960     3.1820     0.9020 c6         1 LY5      -0.063400
     16 C4           2.7680     2.2010     0.1870 c6         1 LY5      -0.055700
     17 C5           2.0020     1.3240    -0.8510 c6         1 LY5      -0.055700
     18 C3           3.5660     1.3190     1.1930 c6         1 LY5       0.173800
     19 N1           4.5010     0.4090     0.4930 n7         1 LY5      -0.865400
     20 C1           3.8070    -0.5050    -0.4970 c6         1 LY5       0.033500
     21 C2           2.9850     0.3250    -1.5270 c6         1 LY5      -0.042400
     22 C10          4.7340    -1.5600    -1.2440 c          1 LY5       0.726000
     23 O1           5.8960    -1.2410    -1.4740 o          1 LY5      -0.744000
     24 O2           4.4230    -2.7390    -1.1260 o          1 LY5      -0.744000
     25 H141        -4.9940    -1.7160    -0.2730 hc         1 LY5       0.073700
     26 H142        -3.3580    -2.1240    -0.7980 hc         1 LY5       0.073700
     27 H12         -4.1250     0.0780     1.2580 h1         1 LY5       0.011700
     28 H161        -2.1620     1.1150    -1.6910 h1         1 LY5       0.037700
     29 H162        -3.3500     1.7830    -0.5550 h1         1 LY5       0.037700
     30 H111        -2.0400     1.6730     1.6080 h1         1 LY5       0.028700
     31 H112        -1.0410     0.2540     1.9310 h1         1 LY5       0.028700
     32 H7          -0.5800     2.2980    -0.2820 hc         1 LY5       0.017700
     33 H61          1.1060    -0.1420     0.5300 hc         1 LY5       0.070700
     34 H62          0.2370     0.0450    -0.9820 hc         1 LY5       0.070700
     35 H81         -0.0970     3.2060     1.9720 hc         1 LY5       0.024700
     36 H82          0.9100     1.8200     2.3630 hc         1 LY5       0.024700
     37 H91          1.4350     3.9250     0.1770 hc         1 LY5       0.013200
     38 H92          2.3340     3.7470     1.6750 hc         1 LY5       0.013200
     39 H4           3.4990     2.8120    -0.3610 hc         1 LY5       0.037700
     40 H5           1.6140     1.9870    -1.6360 hc         1 LY5       0.009700
     41 H31          4.1420     1.9650     1.8720 h1         1 LY5       0.004200
     42 H32          2.8800     0.7200     1.8090 h1         1 LY5       0.004200
     43 HN1          4.9960    -0.1650     1.1870 hn         1 LY5       0.426000
     44 H1           3.0920    -1.1130     0.0780 h1         1 LY5       0.023700
     45 H21          2.4320    -0.3520    -2.1930 hc         1 LY5       0.042700
     46 H22          3.6790     0.8820    -2.1720 hc         1 LY5       0.042700
@<TRIPOS>BOND
     1     1     2 1   
     2     2     3 1   
     3     2     4 1   
     4     2     9 1   
     5     4     5 1   
     6     4    25 1   
     7     4    26 1   
     8     5     6 1   
     9     5    10 1   
    10     5    27 1   
    11     6     7 1   
    12     6     8 1   
    13     9    10 1   
    14     9    28 1   
    15     9    29 1   
    16    10    11 1   
    17    11    12 1   
    18    11    30 1   
    19    11    31 1   
    20    12    13 1   
    21    12    14 1   
    22    12    32 1   
    23    13    17 1   
    24    13    33 1   
    25    13    34 1   
    26    14    15 1   
    27    14    35 1   
    28    14    36 1   
    29    15    16 1   
    30    15    37 1   
    31    15    38 1   
    32    16    17 1   
    33    16    18 1   
    34    16    39 1   
    35    17    21 1   
    36    17    40 1   
    37    18    19 1   
    38    18    41 1   
    39    18    42 1   
    40    19    20 1   
    41    19    43 1   
    42    20    21 1   
    43    20    22 1   
    44    20    44 1   
    45    21    45 1   
    46    21    46 1   
    47    22    23 1   
    48    22    24 1   
@<TRIPOS>SUBSTRUCTURE
     1 LY5         1 TEMP              0 ****  ****    0 ROOT
