@<TRIPOS>MOLECULE
LY7
   46    47     1     0     0
SMALL
No Charge or Current Charge


@<TRIPOS>ATOM
      1 CAA         -5.4580     0.9780    -1.8070 c3         1 LY7      -0.074600
      2 CAB         -6.1350     2.6870    -0.0160 c3         1 LY7      -0.074600
      3 CAC         -2.0690    -1.9260    -1.8000 c3         1 LY7      -0.087100
      4 NAD          9.2970     1.2480     0.2690 n1         1 LY7      -0.450000
      5 OAE         -6.3680    -0.4600     0.9350 o          1 LY7      -0.525000
      6 OAF         -4.5510     0.8350     2.1400 o          1 LY7      -0.525000
      7 CAH          5.7950     1.6200     0.0030 ca         1 LY7      -0.071000
      8 CAI          6.3780    -0.7340     0.1780 ca         1 LY7      -0.071000
      9 CAJ          4.4350     1.2750    -0.0770 ca         1 LY7      -0.106500
     10 CAK          5.0160    -1.0750     0.0990 ca         1 LY7      -0.106500
     11 CAL          2.0420    -1.5450     0.6070 ca         1 LY7      -0.094500
     12 CAM          1.6670     0.2990    -0.9210 ca         1 LY7      -0.094500
     13 CAN          0.6820    -1.8880     0.5280 ca         1 LY7      -0.105000
     14 CAO          0.3070    -0.0440    -1.0020 ca         1 LY7      -0.105000
     15 CAP         -2.5680    -0.3830     0.2120 c3         1 LY7       0.210800
     16 NAQ         -3.9700    -0.8190     0.3450 n7         1 LY7      -0.875300
     17 CAR          6.7730     0.6160     0.1310 ca         1 LY7      -0.017000
     18 CAS          4.0160    -0.0790    -0.0310 cp         1 LY7      -0.008000
     19 CAT          2.5650    -0.4440    -0.1160 cp         1 LY7      -0.042000
     20 CAU         -0.1990    -1.1410    -0.2770 ca         1 LY7      -0.078300
     21 CAV         -5.1490     1.5510    -0.3960 c3         1 LY7      -0.306700
     22 CAW         -1.6800    -1.5200    -0.3560 c3         1 LY7      -0.016400
     23 SAX         -5.1000     0.2700     0.9050 s6         1 LY7       1.171100
     24 HAA         -4.6850     0.2740    -2.1370 hc         1 LY7       0.050533
     25 HAAA        -6.4270     0.4630    -1.8210 hc         1 LY7       0.050533
     26 HAAB        -5.4960     1.7860    -2.5480 hc         1 LY7       0.050533
     27 HAB         -7.1650     2.3120     0.0420 hc         1 LY7       0.050533
     28 HABA        -5.8740     3.1250     0.9550 hc         1 LY7       0.050533
     29 HABB        -6.1070     3.4900    -0.7620 hc         1 LY7       0.050533
     30 HAC         -2.0230    -1.0660    -2.4790 hc         1 LY7       0.039033
     31 HACA        -1.3840    -2.6950    -2.1760 hc         1 LY7       0.039033
     32 HACB        -3.0840    -2.3390    -1.8360 hc         1 LY7       0.039033
     33 HAH          6.0870     2.6680    -0.0320 ha         1 LY7       0.127000
     34 HAI          7.1240    -1.5210     0.2740 ha         1 LY7       0.127000
     35 HAJ          3.6970     2.0690    -0.1620 ha         1 LY7       0.121500
     36 HAK          4.7370    -2.1250     0.1240 ha         1 LY7       0.121500
     37 HAL          2.6940    -2.1330     1.2480 ha         1 LY7       0.117500
     38 HAM          2.0300     1.1420    -1.5030 ha         1 LY7       0.117500
     39 HAN          0.3150    -2.7380     1.1000 ha         1 LY7       0.116000
     40 HAO         -0.3510     0.5470    -1.6340 ha         1 LY7       0.116000
     41 HAP         -2.4840     0.4940    -0.4440 h1         1 LY7       0.050700
     42 HAPA        -2.1700    -0.0960     1.1960 h1         1 LY7       0.050700
     43 HNAQ        -4.3420    -1.0200    -0.5790 hn         1 LY7       0.484000
     44 HAV         -4.1400     1.9800    -0.4080 h1         1 LY7       0.086700
     45 HAW         -1.8500    -2.3990     0.2790 hc         1 LY7       0.074700
     46 CAG          8.1650     0.9660     0.2120 cg         1 LY7       0.323000
@<TRIPOS>BOND
     1     1    21 1   
     2     1    24 1   
     3     1    25 1   
     4     1    26 1   
     5     2    21 1   
     6     2    27 1   
     7     2    28 1   
     8     2    29 1   
     9     3    22 1   
    10     3    30 1   
    11     3    31 1   
    12     3    32 1   
    13     4    46 3   
    14     5    23 2   
    15     6    23 2   
    16     7     9 ar  
    17     7    17 ar  
    18     7    33 1   
    19     8    10 ar  
    20     8    17 ar  
    21     8    34 1   
    22     9    18 ar  
    23     9    35 1   
    24    10    18 ar  
    25    10    36 1   
    26    11    13 ar  
    27    11    19 ar  
    28    11    37 1   
    29    12    14 ar  
    30    12    19 ar  
    31    12    38 1   
    32    13    20 ar  
    33    13    39 1   
    34    14    20 ar  
    35    14    40 1   
    36    15    16 1   
    37    15    22 1   
    38    15    41 1   
    39    15    42 1   
    40    16    23 1   
    41    16    43 1   
    42    17    46 1   
    43    18    19 1   
    44    20    22 1   
    45    21    23 1   
    46    21    44 1   
    47    22    45 1   
@<TRIPOS>SUBSTRUCTURE
     1 LY7         1 TEMP              0 ****  ****    0 ROOT
