@<TRIPOS>MOLECULE
LY7
   46    47     1     0     0
SMALL
abcg2


@<TRIPOS>ATOM
      1 CAA         -5.3510     1.7460    -1.5730 c3         1 LY7      -0.074600
      2 CAB         -5.9260     2.5990     0.7430 c3         1 LY7      -0.074600
      3 CAC         -1.9400    -2.4220    -1.8460 c3         1 LY7      -0.087100
      4 NAD          9.0160     1.5020     0.4600 n1         1 LY7      -0.450000
      5 OAE         -6.3290    -0.5350     0.2850 o          1 LY7      -0.525000
      6 OAF         -4.5240     0.0850     1.9190 o          1 LY7      -0.525000
      7 CAH          5.6390     1.5890    -0.4230 ca         1 LY7      -0.071000
      8 CAI          6.1570    -0.4810     0.7140 ca         1 LY7      -0.071000
      9 CAJ          4.3240     1.1840    -0.5450 ca         1 LY7      -0.106500
     10 CAK          4.8380    -0.8730     0.5830 ca         1 LY7      -0.106500
     11 CAL          1.8780    -1.2330     0.8200 ca         1 LY7      -0.094500
     12 CAM          1.7380    -0.1230    -1.2950 ca         1 LY7      -0.094500
     13 CAN          0.5550    -1.6250     0.6970 ca         1 LY7      -0.105000
     14 CAO          0.4170    -0.5220    -1.4170 ca         1 LY7      -0.105000
     15 CAP         -2.5320    -0.4710    -0.3340 c3         1 LY7       0.210800
     16 NAQ         -3.9440    -0.8370    -0.3320 n7         1 LY7      -0.875300
     17 CAR          6.5610     0.7550     0.2100 ca         1 LY7      -0.017000
     18 CAS          3.8990    -0.0500    -0.0450 cp         1 LY7      -0.008000
     19 CAT          2.4930    -0.4730    -0.1740 cp         1 LY7      -0.042000
     20 CAU         -0.1980    -1.2820    -0.4230 ca         1 LY7      -0.078300
     21 CAV         -4.9940     1.7350    -0.0960 c3         1 LY7      -0.306700
     22 CAW         -1.6430    -1.7030    -0.5310 c3         1 LY7      -0.016400
     23 SAX         -5.0200     0.0470     0.5490 s6         1 LY7       1.171100
     24 HAA         -4.6680     1.1460    -2.1750 hc         1 LY7       0.050533
     25 HAAA        -6.3680     1.3940    -1.7420 hc         1 LY7       0.050533
     26 HAAB        -5.2870     2.7700    -1.9400 hc         1 LY7       0.050533
     27 HAB         -6.9620     2.2750     0.6490 hc         1 LY7       0.050533
     28 HABA        -5.6500     2.5950     1.7960 hc         1 LY7       0.050533
     29 HABB        -5.8630     3.6270     0.3890 hc         1 LY7       0.050533
     30 HAC         -1.8690    -1.7510    -2.7040 hc         1 LY7       0.039033
     31 HACA        -1.2390    -3.2420    -2.0030 hc         1 LY7       0.039033
     32 HACB        -2.9430    -2.8520    -1.8430 hc         1 LY7       0.039033
     33 HAH          5.9490     2.5500    -0.8100 ha         1 LY7       0.127000
     34 HAI          6.8710    -1.1320     1.1970 ha         1 LY7       0.127000
     35 HAJ          3.6140     1.8500    -1.0180 ha         1 LY7       0.121500
     36 HAK          4.5420    -1.8430     0.9590 ha         1 LY7       0.121500
     37 HAL          2.4250    -1.5070     1.7140 ha         1 LY7       0.117500
     38 HAM          2.1900     0.4490    -2.0960 ha         1 LY7       0.117500
     39 HAN          0.0970    -2.2030     1.4900 ha         1 LY7       0.116000
     40 HAO         -0.1320    -0.2370    -2.3070 ha         1 LY7       0.116000
     41 HAP         -2.3190     0.2720    -1.1110 h1         1 LY7       0.050700
     42 HAPA        -2.2910    -0.0160     0.6260 h1         1 LY7       0.050700
     43 HNAQ        -4.3200    -1.1010    -1.2350 hn         1 LY7       0.484000
     44 HAV         -3.9620     2.0690     0.0430 h1         1 LY7       0.086700
     45 HAW         -1.8550    -2.3910     0.2930 hc         1 LY7       0.074700
     46 CAG          7.9200     1.1680     0.3440 cg         1 LY7       0.323000
@<TRIPOS>BOND
     1     1    21 1   
     2     1    24 1   
     3     1    25 1   
     4     1    26 1   
     5     2    21 1   
     6     2    27 1   
     7     2    28 1   
     8     2    29 1   
     9     3    22 1   
    10     3    30 1   
    11     3    31 1   
    12     3    32 1   
    13     4    46 3   
    14     5    23 2   
    15     6    23 2   
    16     7     9 ar  
    17     7    17 ar  
    18     7    33 1   
    19     8    10 ar  
    20     8    17 ar  
    21     8    34 1   
    22     9    18 ar  
    23     9    35 1   
    24    10    18 ar  
    25    10    36 1   
    26    11    13 ar  
    27    11    19 ar  
    28    11    37 1   
    29    12    14 ar  
    30    12    19 ar  
    31    12    38 1   
    32    13    20 ar  
    33    13    39 1   
    34    14    20 ar  
    35    14    40 1   
    36    15    16 1   
    37    15    22 1   
    38    15    41 1   
    39    15    42 1   
    40    16    23 1   
    41    16    43 1   
    42    17    46 1   
    43    18    19 1   
    44    20    22 1   
    45    21    23 1   
    46    21    44 1   
    47    22    45 1   
@<TRIPOS>SUBSTRUCTURE
     1 LY7         1 TEMP              0 ****  ****    0 ROOT
