@<TRIPOS>MOLECULE
LY9
   18    17     1     0     0
SMALL
No Charge or Current Charge


@<TRIPOS>ATOM
      1 OAA         -2.9800    -0.0830    -1.3710 o          1 LY9      -0.744500
      2 OAB         -1.3520     1.9680    -0.3500 oh         1 LY9      -0.773500
      3 OAC          1.4110     0.2580     1.8350 oh         1 LY9      -0.773500
      4 CAF         -2.6180    -0.1950    -0.2050 c          1 LY9       0.699000
      5 CAG         -1.3520     0.6260     0.2350 c3         1 LY9      -0.006700
      6 CAH         -0.0430    -0.1400    -0.1410 c3         1 LY9       0.167300
      7 CAI          1.2580     0.5300     0.4010 c3         1 LY9      -0.006700
      8 CAJ          2.5240     0.0930    -0.4200 c          1 LY9       0.699000
      9 OAK          3.4780    -0.3470     0.2130 o          1 LY9      -0.744500
     10 OAL         -0.0710    -1.4650     0.3980 oh         1 LY9      -0.653000
     11 HAG         -1.3880     0.7080     1.3300 h1         1 LY9       0.042200
     12 HAH          0.0080    -0.1830    -1.2380 h1         1 LY9       0.078700
     13 HAI          1.1780     1.6130     0.2430 h1         1 LY9       0.042200
     14 HOAL         0.3770    -1.3490     1.2690 ho         1 LY9       0.426000
     15 HOAB        -1.9020     1.8960    -1.1710 ho         1 LY9       0.518000
     16 OAD          2.5430     0.2630    -1.6310 o          1 LY9      -0.744500
     17 OAE         -3.3180    -0.7090     0.6580 o          1 LY9      -0.744500
     18 HOAC         2.3740     0.0350     1.9380 ho         1 LY9       0.518000
@<TRIPOS>BOND
     1     1     4 1   
     2     2     5 1   
     3     2    15 1   
     4     3     7 1   
     5     3    18 1   
     6     4     5 1   
     7     4    17 1   
     8     5     6 1   
     9     5    11 1   
    10     6     7 1   
    11     6    10 1   
    12     6    12 1   
    13     7     8 1   
    14     7    13 1   
    15     8     9 1   
    16     8    16 1   
    17    10    14 1   
@<TRIPOS>SUBSTRUCTURE
     1 LY9         1 TEMP              0 ****  ****    0 ROOT
