@<TRIPOS>MOLECULE
LY9
   18    17     1     0     0
SMALL
abcg2


@<TRIPOS>ATOM
      1 OAA         -3.0630     0.3190    -1.2160 o          1 LY9      -0.744500
      2 OAB         -1.3260     1.9170    -0.2160 oh         1 LY9      -0.773500
      3 OAC          1.3480     0.6210     1.6880 oh         1 LY9      -0.773500
      4 CAF         -2.5490    -0.1520    -0.1720 c          1 LY9       0.699000
      5 CAG         -1.2940     0.6080     0.3070 c3         1 LY9      -0.006700
      6 CAH         -0.0100    -0.0980    -0.1690 c3         1 LY9       0.167300
      7 CAI          1.2500     0.6400     0.2830 c3         1 LY9      -0.006700
      8 CAJ          2.5090    -0.0180    -0.3220 c          1 LY9       0.699000
      9 OAK          3.3430    -0.4270     0.5190 o          1 LY9      -0.744500
     10 OAL          0.0410    -1.4460     0.2370 oh         1 LY9      -0.653000
     11 HAG         -1.2950     0.6550     1.4040 h1         1 LY9       0.042200
     12 HAH         -0.0210    -0.1050    -1.2640 h1         1 LY9       0.078700
     13 HAI          1.1980     1.6730    -0.0840 h1         1 LY9       0.042200
     14 HOAL         0.1030    -1.4570     1.1980 ho         1 LY9       0.426000
     15 HOAB        -1.9620     1.8260    -0.9480 ho         1 LY9       0.518000
     16 OAD          2.5920    -0.0760    -1.5580 o          1 LY9      -0.744500
     17 OAE         -2.9400    -1.1280     0.4820 o          1 LY9      -0.744500
     18 HOAC         2.2020     0.1650     1.8220 ho         1 LY9       0.518000
@<TRIPOS>BOND
     1     1     4 1   
     2     2     5 1   
     3     2    15 1   
     4     3     7 1   
     5     3    18 1   
     6     4     5 1   
     7     4    17 1   
     8     5     6 1   
     9     5    11 1   
    10     6     7 1   
    11     6    10 1   
    12     6    12 1   
    13     7     8 1   
    14     7    13 1   
    15     8     9 1   
    16     8    16 1   
    17    10    14 1   
@<TRIPOS>SUBSTRUCTURE
     1 LY9         1 TEMP              0 ****  ****    0 ROOT
