@<TRIPOS>MOLECULE
LYA
   50    52     1     0     0
SMALL
abcg2


@<TRIPOS>ATOM
      1 C1          -1.1220     1.1190     0.9290 ca         1 LYA      -0.102300
      2 C2          -2.2660     1.5030     0.2350 ca         1 LYA      -0.127000
      3 C3          -2.3230     1.4190    -1.1470 ca         1 LYA      -0.079500
      4 C4          -1.2410     0.9320    -1.8760 ca         1 LYA      -0.105600
      5 C5          -0.0900     0.5540    -1.1850 ca         1 LYA      -0.079500
      6 C6          -0.0350     0.6470     0.1960 ca         1 LYA      -0.127000
      7 C7          -1.0590     1.1660     2.4270 c3         1 LYA      -0.016100
      8 C8          -1.3700    -0.2040     3.0480 c3         1 LYA      -0.012100
      9 C9          -1.1930    -0.2090     4.5290 cc         1 LYA      -0.034300
     10 C10         -2.1800    -0.2240     5.4710 cd         1 LYA      -0.221000
     11 N11         -1.6100    -0.1900     6.7310 na         1 LYA      -0.139000
     12 C12         -0.2780    -0.1540     6.5880 cd         1 LYA       0.217000
     13 C13          0.0460    -0.1620     5.2480 cc         1 LYA      -0.264600
     14 C14          1.4410    -0.1440     4.8770 c          1 LYA       0.755100
     15 O15          1.8350    -0.1630     3.7110 o          1 LYA      -0.535100
     16 N16          2.3460    -0.1010     5.9120 nc         1 LYA      -0.779100
     17 C17          1.9710    -0.0960     7.1630 cd         1 LYA       0.887100
     18 N18          0.6700    -0.1210     7.5650 na         1 LYA      -0.933200
     19 N19          2.8960    -0.1040     8.1380 nv         1 LYA      -1.058200
     20 C20         -1.3590     0.8720    -3.3670 c          1 LYA       0.596700
     21 O21         -2.1910     1.5550    -3.9550 o          1 LYA      -0.646100
     22 N22         -0.4980     0.0650    -4.0010 ns         1 LYA      -0.416900
     23 C23         -0.5730    -0.1930    -5.4210 c3         1 LYA      -0.052300
     24 C24          0.7870    -0.6680    -5.9330 c3         1 LYA      -0.053400
     25 C25          1.8840     0.3720    -5.7700 c3         1 LYA      -0.201400
     26 C26          3.2630    -0.0130    -6.3340 c          1 LYA       0.712000
     27 O27          3.3610    -1.0870    -6.9600 o          1 LYA      -0.762000
     28 O28          4.1860     0.8030    -6.1210 o          1 LYA      -0.762000
     29 C29         -1.6930    -1.2040    -5.7810 c          1 LYA       0.716000
     30 O30         -1.9240    -1.3190    -7.0020 o          1 LYA      -0.743500
     31 O31         -2.2440    -1.8150    -4.8500 o          1 LYA      -0.743500
     32 HC2         -3.1230     1.8800     0.7800 ha         1 LYA       0.101000
     33 HC3         -3.2190     1.7350    -1.6650 ha         1 LYA       0.130500
     34 HC5          0.7890     0.2060    -1.7130 ha         1 LYA       0.130500
     35 HC6          0.8700     0.3550     0.7170 ha         1 LYA       0.101000
     36 HC71        -1.7640     1.9050     2.8150 hc         1 LYA       0.042200
     37 HC72        -0.0600     1.4750     2.7410 hc         1 LYA       0.042200
     38 HC81        -0.7160    -0.9530     2.5940 hc         1 LYA       0.061200
     39 HC82        -2.3950    -0.4900     2.7980 hc         1 LYA       0.061200
     40 H10         -3.2510    -0.2570     5.3590 h4         1 LYA       0.151000
     41 H11         -2.1190    -0.1980     7.6000 hn         1 LYA       0.339000
     42 H18          0.4220    -0.1400     8.5430 hn         1 LYA       0.489000
     43 H191         3.8490     0.0700     7.8680 hn         1 LYA       0.492000
     44 H192         2.6520     0.1230     9.0870 hn         1 LYA       0.492000
     45 H22          0.0040    -0.6150    -3.4520 hn         1 LYA       0.298500
     46 H23         -0.8090     0.7530    -5.9170 h1         1 LYA       0.058700
     47 H241         1.0660    -1.5960    -5.4200 hc         1 LYA       0.049200
     48 H242         0.6740    -0.9260    -6.9850 hc         1 LYA       0.049200
     49 H251         1.5680     1.3050    -6.2540 hc         1 LYA       0.011200
     50 H252         2.0090     0.6330    -4.7140 hc         1 LYA       0.011200
@<TRIPOS>BOND
     1     1     2 ar  
     2     1     6 ar  
     3     1     7 1   
     4     2     3 ar  
     5     2    32 1   
     6     3     4 ar  
     7     3    33 1   
     8     4     5 ar  
     9     4    20 1   
    10     5     6 ar  
    11     5    34 1   
    12     6    35 1   
    13     7     8 1   
    14     7    36 1   
    15     7    37 1   
    16     8     9 1   
    17     8    38 1   
    18     8    39 1   
    19     9    10 2   
    20     9    13 1   
    21    10    11 1   
    22    10    40 1   
    23    11    12 1   
    24    11    41 1   
    25    12    13 2   
    26    12    18 1   
    27    13    14 1   
    28    14    15 2   
    29    14    16 1   
    30    16    17 2   
    31    17    18 1   
    32    17    19 1   
    33    18    42 1   
    34    19    43 1   
    35    19    44 1   
    36    20    21 2   
    37    20    22 1   
    38    22    23 1   
    39    22    45 1   
    40    23    24 1   
    41    23    29 1   
    42    23    46 1   
    43    24    25 1   
    44    24    47 1   
    45    24    48 1   
    46    25    26 1   
    47    25    49 1   
    48    25    50 1   
    49    26    27 1   
    50    26    28 1   
    51    29    30 1   
    52    29    31 1   
@<TRIPOS>SUBSTRUCTURE
     1 LYA         1 TEMP              0 ****  ****    0 ROOT
