@<TRIPOS>MOLECULE
LYA
   50    52     1     0     0
SMALL
No Charge or Current Charge


@<TRIPOS>ATOM
      1 C1          -0.6210     0.9830     0.9020 ca         1 LYA      -0.102300
      2 C2          -1.5050     1.7860     0.1610 ca         1 LYA      -0.127000
      3 C3          -1.6600     1.5850    -1.2210 ca         1 LYA      -0.079500
      4 C4          -0.9350     0.5740    -1.8940 ca         1 LYA      -0.105600
      5 C5          -0.0470    -0.2310    -1.1370 ca         1 LYA      -0.079500
      6 C6           0.1040    -0.0250     0.2450 ca         1 LYA      -0.127000
      7 C7          -0.4560     1.1960     2.4010 c3         1 LYA      -0.016100
      8 C8          -1.3760     0.2720     3.2240 c3         1 LYA      -0.012100
      9 C9          -1.2180     0.4630     4.7110 cc         1 LYA      -0.034300
     10 C10         -2.0350     1.2000     5.5560 cd         1 LYA      -0.221000
     11 N11         -1.5050     1.0910     6.8590 na         1 LYA      -0.139000
     12 C12         -0.3870     0.3010     6.7470 cd         1 LYA       0.217000
     13 C13         -0.1810    -0.1040     5.5000 cc         1 LYA      -0.264600
     14 C14          0.9440    -0.9720     5.1730 c          1 LYA       0.755100
     15 O15          1.2100    -1.3910     4.0590 o          1 LYA      -0.535100
     16 N16          1.7100    -1.2920     6.2660 nc         1 LYA      -0.779100
     17 C17          1.4460    -0.8720     7.4610 cd         1 LYA       0.887100
     18 N18          0.4130    -0.0720     7.7980 na         1 LYA      -0.933200
     19 N19          2.2340    -1.2070     8.4330 nv         1 LYA      -1.058200
     20 C20         -1.1280     0.3860    -3.3880 c          1 LYA       0.596700
     21 O21         -1.8950     1.0890    -4.0370 o          1 LYA      -0.646100
     22 N22         -0.3990    -0.6280    -3.9810 ns         1 LYA      -0.416900
     23 C23         -0.3980    -0.9670    -5.4260 c3         1 LYA      -0.052300
     24 C24          0.8090    -0.3400    -6.1760 c3         1 LYA      -0.053400
     25 C25          0.8410     1.2110    -6.1720 c3         1 LYA      -0.201400
     26 C26          2.0100     1.7190    -7.0380 c          1 LYA       0.712000
     27 O27          1.8110     1.8990    -8.2300 o          1 LYA      -0.762000
     28 O28          3.0990     1.8720    -6.5070 o          1 LYA      -0.762000
     29 C29         -0.4310    -2.5150    -5.6090 c          1 LYA       0.716000
     30 O30         -1.3100    -2.9950    -6.3120 o          1 LYA      -0.743500
     31 O31          0.3610    -3.1970    -4.9720 o          1 LYA      -0.743500
     32 HC2         -2.0760     2.5690     0.6550 ha         1 LYA       0.101000
     33 HC3         -2.3510     2.2210    -1.7710 ha         1 LYA       0.130500
     34 HC5          0.5360    -1.0220    -1.6020 ha         1 LYA       0.130500
     35 HC6          0.7890    -0.6550     0.8090 ha         1 LYA       0.101000
     36 HC71        -0.6730     2.2390     2.6630 hc         1 LYA       0.042200
     37 HC72         0.5870     1.0210     2.6920 hc         1 LYA       0.042200
     38 HC81        -1.1770    -0.7730     2.9570 hc         1 LYA       0.061200
     39 HC82        -2.4170     0.4660     2.9400 hc         1 LYA       0.061200
     40 H10         -2.9270     1.7760     5.3340 h4         1 LYA       0.151000
     41 H11         -1.8660     1.5070     7.7080 hn         1 LYA       0.339000
     42 H18          0.2470     0.1860     8.7590 hn         1 LYA       0.489000
     43 H191         3.0900    -1.6230     8.0960 hn         1 LYA       0.492000
     44 H192         2.3600    -0.5010     9.1420 hn         1 LYA       0.492000
     45 H22          0.1870    -1.1850    -3.3720 hn         1 LYA       0.298500
     46 H23         -1.3200    -0.5780    -5.8750 h1         1 LYA       0.058700
     47 H241         1.7420    -0.7220    -5.7440 hc         1 LYA       0.049200
     48 H242         0.7840    -0.6870    -7.2170 hc         1 LYA       0.049200
     49 H251        -0.1180     1.5310    -6.5980 hc         1 LYA       0.011200
     50 H252         0.9830     1.5120    -5.1270 hc         1 LYA       0.011200
@<TRIPOS>BOND
     1     1     2 ar  
     2     1     6 ar  
     3     1     7 1   
     4     2     3 ar  
     5     2    32 1   
     6     3     4 ar  
     7     3    33 1   
     8     4     5 ar  
     9     4    20 1   
    10     5     6 ar  
    11     5    34 1   
    12     6    35 1   
    13     7     8 1   
    14     7    36 1   
    15     7    37 1   
    16     8     9 1   
    17     8    38 1   
    18     8    39 1   
    19     9    10 2   
    20     9    13 1   
    21    10    11 1   
    22    10    40 1   
    23    11    12 1   
    24    11    41 1   
    25    12    13 2   
    26    12    18 1   
    27    13    14 1   
    28    14    15 2   
    29    14    16 1   
    30    16    17 2   
    31    17    18 1   
    32    17    19 1   
    33    18    42 1   
    34    19    43 1   
    35    19    44 1   
    36    20    21 2   
    37    20    22 1   
    38    22    23 1   
    39    22    45 1   
    40    23    24 1   
    41    23    29 1   
    42    23    46 1   
    43    24    25 1   
    44    24    47 1   
    45    24    48 1   
    46    25    26 1   
    47    25    49 1   
    48    25    50 1   
    49    26    27 1   
    50    26    28 1   
    51    29    30 1   
    52    29    31 1   
@<TRIPOS>SUBSTRUCTURE
     1 LYA         1 TEMP              0 ****  ****    0 ROOT
