@<TRIPOS>MOLECULE
LYC
   96    95     1     0     0
SMALL
No Charge or Current Charge


@<TRIPOS>ATOM
      1 C1          73.1820    -7.0780   101.2180 c3         1 LYC      -0.055900
      2 C2          72.2550    -5.8950   101.4250 c2         1 LYC      -0.114400
      3 C3          71.5680    -5.9290   102.7820 c3         1 LYC      -0.055900
      4 C4          72.0770    -4.9460   100.4850 c2         1 LYC      -0.222200
      5 C5          71.1930    -3.7140   100.5690 c3         1 LYC      -0.034200
      6 C6          69.7310    -3.9860   100.1500 c3         1 LYC      -0.039700
      7 C7          69.5970    -4.4510    98.7060 c2         1 LYC      -0.090400
      8 C8          69.5010    -5.9650    98.5630 c3         1 LYC      -0.056400
      9 C9          69.5520    -3.5760    97.6730 ce         1 LYC      -0.196500
     10 C10         69.3950    -3.9300    96.2550 ce         1 LYC      -0.164000
     11 C11         69.3890    -3.0180    95.2410 cf         1 LYC      -0.182500
     12 C12         69.2260    -3.2830    93.8080 cf         1 LYC      -0.059200
     13 C13         69.4090    -4.7210    93.3300 c3         1 LYC      -0.055900
     14 C14         68.9830    -2.2480    92.9490 ce         1 LYC      -0.181500
     15 C15         68.7940    -2.3240    91.4910 ce         1 LYC      -0.168500
     16 C16         68.6130    -1.2330    90.6920 cf         1 LYC      -0.176500
     17 C17         68.4030    -1.2200    89.2400 cf         1 LYC      -0.061700
     18 C18         68.7360    -2.4930    88.4660 c3         1 LYC      -0.055900
     19 C19         67.9820    -0.0740    88.6250 ce         1 LYC      -0.177500
     20 C20         67.7200     0.1240    87.1900 ce         1 LYC      -0.171000
     21 C21         67.3600     1.3140    86.6390 cf         1 LYC      -0.171000
     22 C50         67.0840     1.5100    85.2170 cf         1 LYC      -0.177500
     23 C51         66.7750     2.6810    84.5850 ce         1 LYC      -0.061700
     24 C52         66.7380     4.0270    85.3060 c3         1 LYC      -0.055900
     25 C53         66.5270     2.6870    83.1290 ce         1 LYC      -0.176500
     26 C54         65.9870     3.6960    82.3870 cf         1 LYC      -0.168500
     27 C55         65.7600     3.6150    80.9460 cf         1 LYC      -0.181500
     28 C56         65.2800     4.5970    80.1250 ce         1 LYC      -0.059200
     29 C57         64.9620     6.0070    80.6180 c3         1 LYC      -0.055900
     30 C58         65.1140     4.3320    78.6810 ce         1 LYC      -0.182500
     31 C59         64.4430     5.0960    77.7730 cf         1 LYC      -0.164000
     32 C60         64.3150     4.7550    76.3590 cf         1 LYC      -0.196500
     33 C61         63.6780     5.4950    75.4170 c2         1 LYC      -0.090400
     34 C62         62.9820     6.8220    75.6920 c3         1 LYC      -0.056400
     35 C63         63.5620     5.0380    73.9700 c3         1 LYC      -0.039700
     36 C64         62.1650     4.4780    73.6300 c3         1 LYC      -0.034200
     37 C65         62.0640     4.0220    72.1850 c2         1 LYC      -0.222200
     38 C66         61.7320     4.7660    71.1130 c2         1 LYC      -0.114400
     39 C67         61.6400     4.1820    69.7150 c3         1 LYC      -0.055900
     40 C68         61.4150     6.2550    71.1390 c3         1 LYC      -0.055900
     41 H11A        73.6710    -7.0460   100.2370 hc         1 LYC       0.038450
     42 H12         72.6330    -8.0250   101.2790 hc         1 LYC       0.038450
     43 H13         73.9720    -7.0990   101.9780 hc         1 LYC       0.038450
     44 H31         72.3030    -5.8700   103.5940 hc         1 LYC       0.038450
     45 H32         71.0050    -6.8620   102.9110 hc         1 LYC       0.038450
     46 H33         70.8590    -5.1070   102.9230 hc         1 LYC       0.038450
     47 H4          72.6130    -5.0210    99.5380 ha         1 LYC       0.166500
     48 H51         71.6050    -2.9210    99.9320 hc         1 LYC       0.045450
     49 H52         71.1980    -3.3040   101.5860 hc         1 LYC       0.045450
     50 H61         69.1600    -3.0600   100.2900 hc         1 LYC       0.046450
     51 H62         69.2840    -4.7120   100.8410 hc         1 LYC       0.046450
     52 H81         69.9230    -6.4910    99.4280 hc         1 LYC       0.041033
     53 H82         70.0480    -6.3240    97.6840 hc         1 LYC       0.041033
     54 H83         68.4560    -6.2810    98.4630 hc         1 LYC       0.041033
     55 H9          69.6310    -2.5080    97.8870 ha         1 LYC       0.168500
     56 H10         69.2570    -4.9850    96.0200 ha         1 LYC       0.172000
     57 H11         69.4970    -1.9680    95.5200 ha         1 LYC       0.170000
     58 H131        68.4550    -5.2610    93.3270 hc         1 LYC       0.042033
     59 H132        70.1100    -5.2790    93.9610 hc         1 LYC       0.042033
     60 H133        69.8260    -4.7720    92.3180 hc         1 LYC       0.042033
     61 H14         68.9020    -1.2470    93.3770 ha         1 LYC       0.169000
     62 H15         68.7730    -3.3160    91.0420 ha         1 LYC       0.173500
     63 H16         68.6050    -0.2570    91.1810 ha         1 LYC       0.170000
     64 H181        69.5410    -3.0650    88.9420 hc         1 LYC       0.042533
     65 H182        69.0890    -2.2820    87.4520 hc         1 LYC       0.042533
     66 H183        67.8590    -3.1470    88.3870 hc         1 LYC       0.042533
     67 H19         67.8010     0.7980    89.2550 ha         1 LYC       0.169000
     68 H20         67.8100    -0.7390    86.5310 ha         1 LYC       0.172000
     69 H21         67.2610     2.1730    87.3050 ha         1 LYC       0.172000
     70 H50         67.1180     0.6060    84.6050 ha         1 LYC       0.169000
     71 H521        67.4110     4.0560    86.1690 hc         1 LYC       0.042533
     72 H522        65.7270     4.2560    85.6620 hc         1 LYC       0.042533
     73 H523        67.0610     4.8490    84.6580 hc         1 LYC       0.042533
     74 H53         66.7930     1.7690    82.6020 ha         1 LYC       0.170000
     75 H54         65.6810     4.6120    82.8930 ha         1 LYC       0.173500
     76 H55         65.9890     2.6510    80.4880 ha         1 LYC       0.169000
     77 H571        65.5760     6.2950    81.4780 hc         1 LYC       0.042033
     78 H572        63.9100     6.0940    80.9140 hc         1 LYC       0.042033
     79 H573        65.1600     6.7650    79.8520 hc         1 LYC       0.042033
     80 H58         65.5700     3.4090    78.3170 ha         1 LYC       0.170000
     81 H59         63.9500     6.0070    78.1130 ha         1 LYC       0.172000
     82 H60         64.7720     3.8120    76.0510 ha         1 LYC       0.168500
     83 H621        63.5700     7.4540    76.3670 hc         1 LYC       0.041033
     84 H622        62.0000     6.6580    76.1530 hc         1 LYC       0.041033
     85 H623        62.8230     7.4030    74.7760 hc         1 LYC       0.041033
     86 H631        64.3060     4.2600    73.7590 hc         1 LYC       0.046450
     87 H632        63.7970     5.8650    73.2880 hc         1 LYC       0.046450
     88 H641        61.4040     5.2360    73.8490 hc         1 LYC       0.045450
     89 H642        61.9450     3.6360    74.2980 hc         1 LYC       0.045450
     90 H65         62.2780     2.9590    72.0560 ha         1 LYC       0.166500
     91 H671        61.8680     3.1100    69.7060 hc         1 LYC       0.038450
     92 H672        62.3460     4.6740    69.0340 hc         1 LYC       0.038450
     93 H673        60.6330     4.3070    69.3010 hc         1 LYC       0.038450
     94 H681        62.0770     6.8070    70.4610 hc         1 LYC       0.038450
     95 H682        61.5340     6.7000    72.1320 hc         1 LYC       0.038450
     96 H683        60.3830     6.4410    70.8180 hc         1 LYC       0.038450
@<TRIPOS>BOND
     1     1     2 1   
     2     1    41 1   
     3     1    42 1   
     4     1    43 1   
     5     2     3 1   
     6     2     4 2   
     7     3    44 1   
     8     3    45 1   
     9     3    46 1   
    10     4     5 1   
    11     4    47 1   
    12     5     6 1   
    13     5    48 1   
    14     5    49 1   
    15     6     7 1   
    16     6    50 1   
    17     6    51 1   
    18     7     8 1   
    19     7     9 2   
    20     8    52 1   
    21     8    53 1   
    22     8    54 1   
    23     9    10 1   
    24     9    55 1   
    25    10    11 2   
    26    10    56 1   
    27    11    12 1   
    28    11    57 1   
    29    12    13 1   
    30    12    14 2   
    31    13    58 1   
    32    13    59 1   
    33    13    60 1   
    34    14    15 1   
    35    14    61 1   
    36    15    16 2   
    37    15    62 1   
    38    16    17 1   
    39    16    63 1   
    40    17    18 1   
    41    17    19 2   
    42    18    64 1   
    43    18    65 1   
    44    18    66 1   
    45    19    20 1   
    46    19    67 1   
    47    20    21 2   
    48    20    68 1   
    49    21    22 1   
    50    21    69 1   
    51    22    23 2   
    52    22    70 1   
    53    23    24 1   
    54    23    25 1   
    55    24    71 1   
    56    24    72 1   
    57    24    73 1   
    58    25    26 2   
    59    25    74 1   
    60    26    27 1   
    61    26    75 1   
    62    27    28 2   
    63    27    76 1   
    64    28    29 1   
    65    28    30 1   
    66    29    77 1   
    67    29    78 1   
    68    29    79 1   
    69    30    31 2   
    70    30    80 1   
    71    31    32 1   
    72    31    81 1   
    73    32    33 2   
    74    32    82 1   
    75    33    34 1   
    76    33    35 1   
    77    34    83 1   
    78    34    84 1   
    79    34    85 1   
    80    35    36 1   
    81    35    86 1   
    82    35    87 1   
    83    36    37 1   
    84    36    88 1   
    85    36    89 1   
    86    37    38 2   
    87    37    90 1   
    88    38    39 1   
    89    38    40 1   
    90    39    91 1   
    91    39    92 1   
    92    39    93 1   
    93    40    94 1   
    94    40    95 1   
    95    40    96 1   
@<TRIPOS>SUBSTRUCTURE
     1 LYC         1 TEMP              0 ****  ****    0 ROOT
