@<TRIPOS>MOLECULE
LYC
   96    95     1     0     0
SMALL
bcc


@<TRIPOS>ATOM
      1 C1          72.7360    -7.4780   101.4070 c3         1 LYC      -0.055900
      2 C2          72.3110    -6.0390   101.3780 c2         1 LYC      -0.114400
      3 C3          71.7950    -5.5140   102.6850 c3         1 LYC      -0.055900
      4 C4          72.3850    -5.3150   100.2580 c2         1 LYC      -0.172200
      5 C5          71.9750    -3.8810   100.0930 c3         1 LYC      -0.034200
      6 C6          70.4910    -3.6690    99.7330 c3         1 LYC      -0.039700
      7 C7          70.0800    -4.2480    98.4090 c2         1 LYC      -0.090400
      8 C8          69.8940    -5.7370    98.3320 c3         1 LYC      -0.056400
      9 C9          69.9100    -3.4320    97.3510 ce         1 LYC      -0.146500
     10 C10         69.5540    -3.8340    96.0100 ce         1 LYC      -0.114000
     11 C11         69.3890    -2.9540    95.0000 cf         1 LYC      -0.132500
     12 C12         69.0340    -3.2860    93.6370 cf         1 LYC      -0.059200
     13 C13         68.8530    -4.7330    93.2860 c3         1 LYC      -0.055900
     14 C14         68.8700    -2.2690    92.7520 ce         1 LYC      -0.131500
     15 C15         68.5200    -2.3660    91.3640 ce         1 LYC      -0.118500
     16 C16         68.3360    -1.2750    90.5850 cf         1 LYC      -0.126500
     17 C17         67.9990    -1.2830    89.1810 cf         1 LYC      -0.061700
     18 C18         67.8900    -2.6040    88.4810 c3         1 LYC      -0.055900
     19 C19         67.7810    -0.0870    88.5720 ce         1 LYC      -0.127500
     20 C20         67.4540     0.1410    87.1970 ce         1 LYC      -0.121000
     21 C21         67.1570     1.3690    86.7040 cf         1 LYC      -0.121000
     22 C50         66.8480     1.5990    85.3260 cf         1 LYC      -0.127500
     23 C51         66.4480     2.7650    84.7500 ce         1 LYC      -0.061700
     24 C52         66.2340     4.0380    85.5120 c3         1 LYC      -0.055900
     25 C53         66.2090     2.7680    83.3260 ce         1 LYC      -0.126500
     26 C54         65.7300     3.8070    82.6040 cf         1 LYC      -0.118500
     27 C55         65.5450     3.7340    81.1830 cf         1 LYC      -0.131500
     28 C56         65.0160     4.6840    80.3690 ce         1 LYC      -0.059200
     29 C57         64.4970     6.0030    80.8590 c3         1 LYC      -0.055900
     30 C58         64.9450     4.4050    78.9500 ce         1 LYC      -0.132500
     31 C59         64.4200     5.2170    78.0100 cf         1 LYC      -0.114000
     32 C60         64.4010     4.8800    76.6060 cf         1 LYC      -0.146500
     33 C61         63.8850     5.6110    75.6000 c2         1 LYC      -0.090400
     34 C62         63.2120     6.9370    75.7750 c3         1 LYC      -0.056400
     35 C63         63.9420     5.0940    74.1910 c3         1 LYC      -0.039700
     36 C64         62.5790     4.6090    73.6660 c3         1 LYC      -0.034200
     37 C65         62.6970     4.0510    72.2820 c2         1 LYC      -0.172200
     38 C66         62.1800     4.5370    71.1510 c2         1 LYC      -0.114400
     39 C67         62.4230     3.8530    69.8360 c3         1 LYC      -0.055900
     40 C68         61.3340     5.7730    71.0580 c3         1 LYC      -0.055900
     41 H11A        73.0820    -7.8250   100.4330 hc         1 LYC       0.038450
     42 H12         71.9090    -8.1220   101.7200 hc         1 LYC       0.038450
     43 H13         73.5410    -7.6360   102.1290 hc         1 LYC       0.038450
     44 H31         72.5450    -5.6280   103.4710 hc         1 LYC       0.038450
     45 H32         70.9210    -6.0860   103.0070 hc         1 LYC       0.038450
     46 H33         71.5060    -4.4650   102.6460 hc         1 LYC       0.038450
     47 H4          72.7610    -5.8080    99.3660 ha         1 LYC       0.116500
     48 H51         72.5860    -3.4190    99.3140 hc         1 LYC       0.045450
     49 H52         72.1730    -3.3170   101.0070 hc         1 LYC       0.045450
     50 H61         70.2990    -2.5930    99.7320 hc         1 LYC       0.046450
     51 H62         69.8770    -4.1010   100.5300 hc         1 LYC       0.046450
     52 H81         69.6160    -6.1470    99.3020 hc         1 LYC       0.041033
     53 H82         70.8160    -6.2410    98.0340 hc         1 LYC       0.041033
     54 H83         69.1250    -6.0250    97.6150 hc         1 LYC       0.041033
     55 H9          70.0580    -2.3660    97.5030 ha         1 LYC       0.118500
     56 H10         69.4170    -4.8930    95.8200 ha         1 LYC       0.122000
     57 H11         69.5320    -1.8970    95.2120 ha         1 LYC       0.120000
     58 H131        68.0350    -5.1710    93.8620 hc         1 LYC       0.042033
     59 H132        69.7490    -5.3080    93.5240 hc         1 LYC       0.042033
     60 H133        68.6320    -4.8910    92.2340 hc         1 LYC       0.042033
     61 H14         69.0170    -1.2590    93.1270 ha         1 LYC       0.119000
     62 H15         68.3960    -3.3510    90.9290 ha         1 LYC       0.123500
     63 H16         68.4500    -0.2950    91.0430 ha         1 LYC       0.120000
     64 H181        68.7990    -3.1950    88.6050 hc         1 LYC       0.042533
     65 H182        67.7060    -2.5030    87.4150 hc         1 LYC       0.042533
     66 H183        67.0710    -3.1950    88.8980 hc         1 LYC       0.042533
     67 H19         67.8560     0.8040    89.1900 ha         1 LYC       0.119000
     68 H20         67.4400    -0.7010    86.5130 ha         1 LYC       0.122000
     69 H21         67.1540     2.2090    87.3910 ha         1 LYC       0.122000
     70 H50         66.9420     0.7340    84.6740 ha         1 LYC       0.119000
     71 H521        66.4750     3.9430    86.5680 hc         1 LYC       0.042533
     72 H522        65.1940     4.3620    85.4430 hc         1 LYC       0.042533
     73 H523        66.8450     4.8460    85.1050 hc         1 LYC       0.042533
     74 H53         66.4420     1.8450    82.8010 ha         1 LYC       0.120000
     75 H54         65.4720     4.7290    83.1130 ha         1 LYC       0.123500
     76 H55         65.8730     2.8090    80.7160 ha         1 LYC       0.119000
     77 H571        64.6480     6.1480    81.9250 hc         1 LYC       0.042033
     78 H572        63.4260     6.0960    80.6660 hc         1 LYC       0.042033
     79 H573        64.9830     6.8330    80.3420 hc         1 LYC       0.042033
     80 H58         65.3590     3.4520    78.6300 ha         1 LYC       0.120000
     81 H59         63.9940     6.1670    78.3120 ha         1 LYC       0.122000
     82 H60         64.8620     3.9290    76.3460 ha         1 LYC       0.118500
     83 H621        63.2230     7.3030    76.7990 hc         1 LYC       0.041033
     84 H622        62.1670     6.8900    75.4580 hc         1 LYC       0.041033
     85 H623        63.6910     7.6930    75.1470 hc         1 LYC       0.041033
     86 H631        64.6570     4.2690    74.1240 hc         1 LYC       0.046450
     87 H632        64.3090     5.8830    73.5250 hc         1 LYC       0.046450
     88 H641        61.8520     5.4210    73.7080 hc         1 LYC       0.045450
     89 H642        62.2110     3.8290    74.3410 hc         1 LYC       0.045450
     90 H65         63.3060     3.1520    72.2090 ha         1 LYC       0.116500
     91 H671        63.0490     2.9680    69.9440 hc         1 LYC       0.038450
     92 H672        62.9100     4.5280    69.1280 hc         1 LYC       0.038450
     93 H673        61.4810     3.5460    69.3730 hc         1 LYC       0.038450
     94 H681        61.8030     6.5080    70.3980 hc         1 LYC       0.038450
     95 H682        61.1600     6.2550    72.0180 hc         1 LYC       0.038450
     96 H683        60.3610     5.5410    70.6180 hc         1 LYC       0.038450
@<TRIPOS>BOND
     1     1     2 1   
     2     1    41 1   
     3     1    42 1   
     4     1    43 1   
     5     2     3 1   
     6     2     4 2   
     7     3    44 1   
     8     3    45 1   
     9     3    46 1   
    10     4     5 1   
    11     4    47 1   
    12     5     6 1   
    13     5    48 1   
    14     5    49 1   
    15     6     7 1   
    16     6    50 1   
    17     6    51 1   
    18     7     8 1   
    19     7     9 2   
    20     8    52 1   
    21     8    53 1   
    22     8    54 1   
    23     9    10 1   
    24     9    55 1   
    25    10    11 2   
    26    10    56 1   
    27    11    12 1   
    28    11    57 1   
    29    12    13 1   
    30    12    14 2   
    31    13    58 1   
    32    13    59 1   
    33    13    60 1   
    34    14    15 1   
    35    14    61 1   
    36    15    16 2   
    37    15    62 1   
    38    16    17 1   
    39    16    63 1   
    40    17    18 1   
    41    17    19 2   
    42    18    64 1   
    43    18    65 1   
    44    18    66 1   
    45    19    20 1   
    46    19    67 1   
    47    20    21 2   
    48    20    68 1   
    49    21    22 1   
    50    21    69 1   
    51    22    23 2   
    52    22    70 1   
    53    23    24 1   
    54    23    25 1   
    55    24    71 1   
    56    24    72 1   
    57    24    73 1   
    58    25    26 2   
    59    25    74 1   
    60    26    27 1   
    61    26    75 1   
    62    27    28 2   
    63    27    76 1   
    64    28    29 1   
    65    28    30 1   
    66    29    77 1   
    67    29    78 1   
    68    29    79 1   
    69    30    31 2   
    70    30    80 1   
    71    31    32 1   
    72    31    81 1   
    73    32    33 2   
    74    32    82 1   
    75    33    34 1   
    76    33    35 1   
    77    34    83 1   
    78    34    84 1   
    79    34    85 1   
    80    35    36 1   
    81    35    86 1   
    82    35    87 1   
    83    36    37 1   
    84    36    88 1   
    85    36    89 1   
    86    37    38 2   
    87    37    90 1   
    88    38    39 1   
    89    38    40 1   
    90    39    91 1   
    91    39    92 1   
    92    39    93 1   
    93    40    94 1   
    94    40    95 1   
    95    40    96 1   
@<TRIPOS>SUBSTRUCTURE
     1 LYC         1 TEMP              0 ****  ****    0 ROOT
