@<TRIPOS>MOLECULE
LYD
   51    53     1     0     0
SMALL
No Charge or Current Charge


@<TRIPOS>ATOM
      1 C5          44.3730    40.9360    21.6570 ca         1 LYD      -0.114000
      2 C4          44.5660    39.7950    20.8580 ca         1 LYD      -0.078300
      3 C3          45.8630    39.4840    20.4130 ca         1 LYD      -0.114000
      4 C2          46.9530    40.2950    20.7700 ca         1 LYD      -0.077500
      5 C1          46.7710    41.4410    21.5760 ca         1 LYD      -0.130600
      6 C6          45.4600    41.7520    22.0140 ca         1 LYD      -0.077500
      7 C9          47.9730    42.2940    21.9410 c          1 LYD       0.596700
      8 O9          49.1020    42.0280    21.5470 o          1 LYD      -0.658100
      9 N           47.7310    43.3880    22.7470 ns         1 LYD      -0.456900
     10 CA          48.7450    44.3750    23.2010 c3         1 LYD      -0.029300
     11 CB          48.7480    45.6690    22.3250 c3         1 LYD      -0.060700
     12 CG1         48.9100    45.3770    20.8130 c3         1 LYD      -0.078600
     13 CG2         49.8210    46.6820    22.7940 c3         1 LYD      -0.078600
     14 C8          43.3870    38.9030    20.4870 c3         1 LYD      -0.019100
     15 C7          43.1700    37.7340    21.4750 c3         1 LYD      -0.005100
     16 C10         44.3470    36.7910    21.5470 cc         1 LYD      -0.051300
     17 C           48.5240    44.6780    24.7170 c          1 LYD       0.706000
     18 OX1         47.4140    45.0440    25.0810 o          1 LYD      -0.727500
     19 OX2         49.4350    44.4320    25.4960 o          1 LYD      -0.727500
     20 C13         44.6130    35.7530    20.6830 cd         1 LYD      -0.216000
     21 N7          45.8210    35.1660    21.0950 na         1 LYD      -0.122000
     22 C7A         46.2870    35.8450    22.2070 cd         1 LYD       0.167400
     23 C4A         45.3990    36.8330    22.5050 cc         1 LYD      -0.288600
     24 C11         45.6030    37.7400    23.6410 c          1 LYD       0.622600
     25 O4          44.8610    38.6370    24.0040 o          1 LYD      -0.536000
     26 N3          46.7510    37.4550    24.2930 ns         1 LYD      -0.448400
     27 C12         47.5840    36.4600    23.9330 cc         1 LYD       0.725800
     28 N1          47.4450    35.6180    22.9360 nd         1 LYD      -0.727100
     29 N2          48.6620    36.3040    24.6820 nv         1 LYD      -1.027200
     30 H5          43.3760    41.1880    22.0100 ha         1 LYD       0.103500
     31 H3          46.0290    38.6030    19.7970 ha         1 LYD       0.103500
     32 H2          47.9460    40.0260    20.4150 ha         1 LYD       0.130500
     33 H6          45.2610    42.6220    22.6350 ha         1 LYD       0.130500
     34 HN          46.7780    43.5220    23.0600 hn         1 LYD       0.329500
     35 HCA         49.7360    43.9100    23.1200 h1         1 LYD       0.068700
     36 HCB         47.7720    46.1540    22.4520 hc         1 LYD       0.045700
     37 HG11        48.9300    46.3100    20.2380 hc         1 LYD       0.024200
     38 HG12        49.8450    44.8370    20.6180 hc         1 LYD       0.024200
     39 HG13        48.0770    44.7750    20.4320 hc         1 LYD       0.024200
     40 HG21        49.8000    47.5840    22.1720 hc         1 LYD       0.024200
     41 HG22        49.6470    46.9930    23.8310 hc         1 LYD       0.024200
     42 HG23        50.8240    46.2440    22.7290 hc         1 LYD       0.024200
     43 HC81        42.4660    39.4980    20.4400 hc         1 LYD       0.037200
     44 HC82        43.5310    38.4920    19.4800 hc         1 LYD       0.037200
     45 HC71        42.9200    38.1330    22.4640 hc         1 LYD       0.050700
     46 HC72        42.2840    37.1730    21.1530 hc         1 LYD       0.050700
     47 HC6         44.0570    35.4030    19.8200 h4         1 LYD       0.142000
     48 HN7         46.2880    34.3800    20.6580 hn         1 LYD       0.352000
     49 HN3         46.9850    38.0420    25.0740 hn         1 LYD       0.329500
     50 HN21        49.1540    35.4410    24.4930 hn         1 LYD       0.487500
     51 HN22        48.5830    36.5510    25.6610 hn         1 LYD       0.487500
@<TRIPOS>BOND
     1     1     2 ar  
     2     1     6 ar  
     3     1    30 1   
     4     2     3 ar  
     5     2    14 1   
     6     3     4 ar  
     7     3    31 1   
     8     4     5 ar  
     9     4    32 1   
    10     5     6 ar  
    11     5     7 1   
    12     6    33 1   
    13     7     8 2   
    14     7     9 1   
    15     9    10 1   
    16     9    34 1   
    17    10    11 1   
    18    10    17 1   
    19    10    35 1   
    20    11    12 1   
    21    11    13 1   
    22    11    36 1   
    23    12    37 1   
    24    12    38 1   
    25    12    39 1   
    26    13    40 1   
    27    13    41 1   
    28    13    42 1   
    29    14    15 1   
    30    14    43 1   
    31    14    44 1   
    32    15    16 1   
    33    15    45 1   
    34    15    46 1   
    35    16    20 2   
    36    16    23 1   
    37    17    18 1   
    38    17    19 1   
    39    20    21 1   
    40    20    47 1   
    41    21    22 1   
    42    21    48 1   
    43    22    23 2   
    44    22    28 1   
    45    23    24 1   
    46    24    25 2   
    47    24    26 1   
    48    26    27 1   
    49    26    49 1   
    50    27    28 2   
    51    27    29 1   
    52    29    50 1   
    53    29    51 1   
@<TRIPOS>SUBSTRUCTURE
     1 LYD         1 TEMP              0 ****  ****    0 ROOT
