@<TRIPOS>MOLECULE
LYD
   51    53     1     0     0
SMALL
abcg2


@<TRIPOS>ATOM
      1 C5          44.1550    40.9580    21.9340 ca         1 LYD      -0.114000
      2 C4          44.3430    39.8720    21.0800 ca         1 LYD      -0.078300
      3 C3          45.6370    39.6100    20.6240 ca         1 LYD      -0.114000
      4 C2          46.7090    40.3880    21.0320 ca         1 LYD      -0.077500
      5 C1          46.5160    41.4720    21.8890 ca         1 LYD      -0.130600
      6 C6          45.2220    41.7550    22.3300 ca         1 LYD      -0.077500
      7 C9          47.7140    42.2660    22.3160 c          1 LYD       0.596700
      8 O9          48.8370    41.7450    22.3630 o          1 LYD      -0.658100
      9 N           47.4870    43.5530    22.6230 ns         1 LYD      -0.456900
     10 CA          48.4610    44.4690    23.1980 c3         1 LYD      -0.029300
     11 CB          48.9670    45.4830    22.1450 c3         1 LYD      -0.060700
     12 CG1         49.6050    44.7750    20.9480 c3         1 LYD      -0.078600
     13 CG2         49.9460    46.4880    22.7520 c3         1 LYD      -0.078600
     14 C8          43.1960    38.9720    20.7120 c3         1 LYD      -0.019100
     15 C7          43.0720    37.7270    21.6280 c3         1 LYD      -0.005100
     16 C10         44.2850    36.8490    21.5950 cc         1 LYD      -0.051300
     17 C           47.7810    45.1930    24.3900 c          1 LYD       0.706000
     18 OX1         46.5900    45.5550    24.2050 o          1 LYD      -0.727500
     19 OX2         48.4670    45.3700    25.4230 o          1 LYD      -0.727500
     20 C13         44.5840    35.9170    20.6370 cd         1 LYD      -0.216000
     21 N7          45.8540    35.4030    20.8740 na         1 LYD      -0.122000
     22 C7A         46.3800    35.9930    21.9750 cd         1 LYD       0.167400
     23 C4A         45.4270    36.9000    22.4660 cc         1 LYD      -0.288600
     24 C11         45.7490    37.6230    23.6500 c          1 LYD       0.622600
     25 O4          45.0570    38.4200    24.2870 o          1 LYD      -0.536000
     26 N3          47.0490    37.3330    24.1090 ns         1 LYD      -0.448400
     27 C12         47.9140    36.4360    23.5430 cc         1 LYD       0.725800
     28 N1          47.6110    35.7310    22.4790 nd         1 LYD      -0.727100
     29 N2          49.1460    36.3310    24.1080 nv         1 LYD      -1.027200
     30 H5          43.1610    41.1770    22.3060 ha         1 LYD       0.103500
     31 H3          45.8050    38.7770    19.9530 ha         1 LYD       0.103500
     32 H2          47.7100    40.1630    20.6880 ha         1 LYD       0.130500
     33 H6          45.0380    42.5760    23.0110 ha         1 LYD       0.130500
     34 HN          46.5470    43.9180    22.5950 hn         1 LYD       0.329500
     35 HCA         49.3010    43.8810    23.5630 h1         1 LYD       0.068700
     36 HCB         48.0860    46.0290    21.7900 hc         1 LYD       0.045700
     37 HG11        49.8920    45.5050    20.1880 hc         1 LYD       0.024200
     38 HG12        50.5030    44.2330    21.2540 hc         1 LYD       0.024200
     39 HG13        48.9200    44.0620    20.4890 hc         1 LYD       0.024200
     40 HG21        50.2870    47.1890    21.9870 hc         1 LYD       0.024200
     41 HG22        49.4920    47.0620    23.5610 hc         1 LYD       0.024200
     42 HG23        50.8240    45.9760    23.1540 hc         1 LYD       0.024200
     43 HC81        42.2590    39.5310    20.7660 hc         1 LYD       0.037200
     44 HC82        43.3150    38.6280    19.6820 hc         1 LYD       0.037200
     45 HC71        42.8850    38.0570    22.6500 hc         1 LYD       0.050700
     46 HC72        42.1960    37.1610    21.3020 hc         1 LYD       0.050700
     47 HC6         44.0100    35.5830    19.7890 h4         1 LYD       0.142000
     48 HN7         46.3150    34.6970    20.3220 hn         1 LYD       0.352000
     49 HN3         47.3360    37.8350    24.9390 hn         1 LYD       0.329500
     50 HN21        49.6940    35.5340    23.8230 hn         1 LYD       0.487500
     51 HN22        49.2720    36.6280    25.0630 hn         1 LYD       0.487500
@<TRIPOS>BOND
     1     1     2 ar  
     2     1     6 ar  
     3     1    30 1   
     4     2     3 ar  
     5     2    14 1   
     6     3     4 ar  
     7     3    31 1   
     8     4     5 ar  
     9     4    32 1   
    10     5     6 ar  
    11     5     7 1   
    12     6    33 1   
    13     7     8 2   
    14     7     9 1   
    15     9    10 1   
    16     9    34 1   
    17    10    11 1   
    18    10    17 1   
    19    10    35 1   
    20    11    12 1   
    21    11    13 1   
    22    11    36 1   
    23    12    37 1   
    24    12    38 1   
    25    12    39 1   
    26    13    40 1   
    27    13    41 1   
    28    13    42 1   
    29    14    15 1   
    30    14    43 1   
    31    14    44 1   
    32    15    16 1   
    33    15    45 1   
    34    15    46 1   
    35    16    20 2   
    36    16    23 1   
    37    17    18 1   
    38    17    19 1   
    39    20    21 1   
    40    20    47 1   
    41    21    22 1   
    42    21    48 1   
    43    22    23 2   
    44    22    28 1   
    45    23    24 1   
    46    24    25 2   
    47    24    26 1   
    48    26    27 1   
    49    26    49 1   
    50    27    28 2   
    51    27    29 1   
    52    29    50 1   
    53    29    51 1   
@<TRIPOS>SUBSTRUCTURE
     1 LYD         1 TEMP              0 ****  ****    0 ROOT
