@<TRIPOS>MOLECULE
LYE
   38    40     1     0     0
SMALL
No Charge or Current Charge


@<TRIPOS>ATOM
      1 C02        -12.6170   -10.9470     3.3870 ca         1 LYE      -0.123000
      2 C04        -14.0750   -12.5910     4.4820 ca         1 LYE      -0.181500
      3 C07        -16.4490   -11.8580     5.1530 ce         1 LYE       0.200600
      4 C08        -17.6100   -11.6890     4.4310 cd         1 LYE      -0.140000
      5 C01        -13.6430    -9.9960     3.4220 ca         1 LYE      -0.109000
      6 C03        -12.8300   -12.2310     3.9120 ca         1 LYE      -0.034000
      7 C05        -15.1090   -11.6090     4.5370 ca         1 LYE      -0.036800
      8 C06        -14.8790   -10.3270     3.9930 ca         1 LYE      -0.125000
      9 C09        -18.4710   -10.5780     4.7400 cd         1 LYE      -0.044500
     10 C10        -19.6350   -10.4050     4.0200 cc         1 LYE      -0.184000
     11 C11        -20.0360   -11.3260     2.9300 c          1 LYE       0.598500
     12 C13        -19.1000   -12.4440     2.6640 cc         1 LYE      -0.184000
     13 C14        -17.9360   -12.6190     3.3830 cd         1 LYE      -0.044500
     14 C17        -16.4720   -12.0710     6.6330 ca         1 LYE      -0.134800
     15 C18        -17.5290   -12.7990     7.2160 ca         1 LYE       0.036000
     16 C19        -17.5770   -13.0000     8.6060 ca         1 LYE      -0.095400
     17 C20        -16.5660   -12.4700     9.4310 ca         1 LYE       0.224100
     18 C21        -15.5110   -11.7380     8.8560 ca         1 LYE      -0.095400
     19 C22        -15.4640   -11.5380     7.4660 ca         1 LYE       0.036000
     20 O12        -21.0710   -11.1720     2.2910 o          1 LYE      -0.520100
     21 O24        -16.6090   -12.6630    10.7830 oh         1 LYE      -0.511100
     22 O27        -13.2770   -15.0800     4.3410 o          1 LYE      -0.683200
     23 O28        -15.6800   -14.6410     4.8220 o          1 LYE      -0.683200
     24 O29        -13.9530   -14.1620     6.5490 o          1 LYE      -0.683200
     25 S26        -14.2750   -14.3370     5.1250 s6         1 LYE       1.251100
     26 Br3        -19.5810   -13.6380     1.2720 br         1 LYE      -0.084200
     27 Br4        -20.8090    -8.9630     4.3850 br         1 LYE      -0.084200
     28 Br2        -14.1160   -10.9970     9.9480 br         1 LYE      -0.099100
     29 Br1        -19.0370   -14.0030     9.3490 br         1 LYE      -0.099100
     30 H021       -11.6540   -10.6930     2.9500 ha         1 LYE       0.101000
     31 H011       -13.4800    -9.0010     3.0120 ha         1 LYE       0.100000
     32 H031       -12.0160   -12.9520     3.8710 ha         1 LYE       0.141000
     33 H061       -15.6650    -9.5760     4.0250 ha         1 LYE       0.105000
     34 H091       -18.2120    -9.8800     5.5340 ha         1 LYE       0.204000
     35 H141       -17.2760   -13.4520     3.1550 ha         1 LYE       0.204000
     36 H181       -18.3140   -13.2180     6.5900 ha         1 LYE       0.147000
     37 H221       -14.6420   -10.9650     7.0420 ha         1 LYE       0.147000
     38 H241       -15.8220   -12.2240    11.1690 ho         1 LYE       0.481000
@<TRIPOS>BOND
     1     1     5 ar  
     2     1     6 ar  
     3     1    30 1   
     4     2     6 ar  
     5     2     7 ar  
     6     2    25 1   
     7     3     4 2   
     8     3     7 1   
     9     3    14 1   
    10     4     9 1   
    11     4    13 1   
    12     5     8 ar  
    13     5    31 1   
    14     6    32 1   
    15     7     8 ar  
    16     8    33 1   
    17     9    10 2   
    18     9    34 1   
    19    10    11 1   
    20    10    27 1   
    21    11    12 1   
    22    11    20 2   
    23    12    13 2   
    24    12    26 1   
    25    13    35 1   
    26    14    15 ar  
    27    14    19 ar  
    28    15    16 ar  
    29    15    36 1   
    30    16    17 ar  
    31    16    29 1   
    32    17    18 ar  
    33    17    21 1   
    34    18    19 ar  
    35    18    28 1   
    36    19    37 1   
    37    21    38 1   
    38    22    25 1   
    39    23    25 1   
    40    24    25 1   
@<TRIPOS>SUBSTRUCTURE
     1 LYE         1 TEMP              0 ****  ****    0 ROOT
