@<TRIPOS>MOLECULE
LYE
   38    40     1     0     0
SMALL
bcc


@<TRIPOS>ATOM
      1 C02        -12.6390   -11.4000     3.3270 ca         1 LYE      -0.141000
      2 C04        -14.1810   -12.7630     4.5870 ca         1 LYE      -0.181500
      3 C07        -16.4590   -11.8170     5.1720 ce         1 LYE       0.200600
      4 C08        -17.6130   -11.6380     4.4410 cd         1 LYE      -0.140000
      5 C01        -13.5840   -10.3910     3.2450 ca         1 LYE      -0.127000
      6 C03        -12.9440   -12.5850     3.9850 ca         1 LYE      -0.052000
      7 C05        -15.1410   -11.7470     4.5100 ca         1 LYE      -0.036800
      8 C06        -14.8290   -10.5690     3.8290 ca         1 LYE      -0.143000
      9 C09        -18.8590   -11.2750     5.0620 cd         1 LYE       0.005500
     10 C10        -19.9700   -11.0760     4.3280 cc         1 LYE      -0.184000
     11 C11        -20.0120   -11.2240     2.8710 c          1 LYE       0.598500
     12 C13        -18.7210   -11.5940     2.2840 cc         1 LYE      -0.184000
     13 C14        -17.6020   -11.7790     3.0100 cd         1 LYE       0.005500
     14 C17        -16.4590   -11.9470     6.6260 ca         1 LYE      -0.134800
     15 C18        -17.3820   -12.7620     7.2830 ca         1 LYE       0.018000
     16 C19        -17.3520   -12.8800     8.6550 ca         1 LYE      -0.095400
     17 C20        -16.4070   -12.1980     9.4340 ca         1 LYE       0.224100
     18 C21        -15.4810   -11.3960     8.7540 ca         1 LYE      -0.095400
     19 C22        -15.4930   -11.2850     7.3790 ca         1 LYE       0.018000
     20 O12        -21.0200   -11.0460     2.2120 o          1 LYE      -0.520100
     21 O24        -16.4520   -12.3690    10.7480 oh         1 LYE      -0.472100
     22 O27        -13.6230   -15.3060     4.7610 o          1 LYE      -0.683200
     23 O28        -15.9540   -14.5890     5.0940 o          1 LYE      -0.683200
     24 O29        -14.2480   -14.1230     6.8170 o          1 LYE      -0.683200
     25 S26        -14.5340   -14.3390     5.3930 s6         1 LYE       1.251100
     26 BR3        -18.7080   -11.8180     0.4180 br         1 LYE      -0.084200
     27 BR4        -21.5760   -10.5350     5.1400 br         1 LYE      -0.084200
     28 BR2        -14.1710   -10.4590     9.7360 br         1 LYE      -0.099100
     29 BR1        -18.5910   -13.9970     9.5220 br         1 LYE      -0.099100
     30 H021       -11.6670   -11.2770     2.8690 ha         1 LYE       0.119000
     31 H011       -13.3600    -9.4670     2.7280 ha         1 LYE       0.118000
     32 H031       -12.2130   -13.3810     4.0160 ha         1 LYE       0.159000
     33 H061       -15.5650    -9.7770     3.7750 ha         1 LYE       0.123000
     34 H091       -18.8790   -11.1000     6.1290 ha         1 LYE       0.154000
     35 H141       -16.6830   -12.0800     2.5250 ha         1 LYE       0.154000
     36 H181       -18.0990   -13.3340     6.7100 ha         1 LYE       0.165000
     37 H221       -14.7590   -10.6620     6.8860 ha         1 LYE       0.165000
     38 H241       -15.7680   -11.8710    11.2160 ho         1 LYE       0.442000
@<TRIPOS>BOND
     1     1     5 ar  
     2     1     6 ar  
     3     1    30 1   
     4     2     6 ar  
     5     2     7 ar  
     6     2    25 1   
     7     3     4 2   
     8     3     7 1   
     9     3    14 1   
    10     4     9 1   
    11     4    13 1   
    12     5     8 ar  
    13     5    31 1   
    14     6    32 1   
    15     7     8 ar  
    16     8    33 1   
    17     9    10 2   
    18     9    34 1   
    19    10    11 1   
    20    10    27 1   
    21    11    12 1   
    22    11    20 2   
    23    12    13 2   
    24    12    26 1   
    25    13    35 1   
    26    14    15 ar  
    27    14    19 ar  
    28    15    16 ar  
    29    15    36 1   
    30    16    17 ar  
    31    16    29 1   
    32    17    18 ar  
    33    17    21 1   
    34    18    19 ar  
    35    18    28 1   
    36    19    37 1   
    37    21    38 1   
    38    22    25 1   
    39    23    25 1   
    40    24    25 1   
@<TRIPOS>SUBSTRUCTURE
     1 LYE         1 TEMP              0 ****  ****    0 ROOT
