@<TRIPOS>MOLECULE
LYF
   41    40     1     0     0
SMALL
bcc


@<TRIPOS>ATOM
      1 C          -93.5450    14.1740    33.2440 c          1 LYF       0.929600
      2 N          -95.4620    15.7030    32.8250 n8         1 LYF      -0.859800
      3 O          -93.0630    14.9960    34.0470 o          1 LYF      -0.840800
      4 CA         -94.5810    14.7030    32.2240 c3         1 LYF       0.017500
      5 CB         -93.8690    15.3520    31.0350 c3         1 LYF      -0.046400
      6 CD         -92.4140    15.1040    28.9840 c3         1 LYF      -0.074400
      7 CE         -91.5140    14.1920    28.1560 c3         1 LYF       0.104800
      8 CG         -92.9900    14.4170    30.2150 c3         1 LYF      -0.074400
      9 NZ         -90.9050    14.9450    27.0860 n2         1 LYF      -0.610900
     10 C11        -91.9760    13.5650    25.3240 c3         1 LYF      -0.161700
     11 C12        -91.1880    12.2590    25.2010 c3         1 LYF       0.150100
     12 C13        -89.9650    12.4010    24.2980 c3         1 LYF      -0.099400
     13 C14        -90.4850    15.6410    24.8330 c          1 LYF       0.849300
     14 O15        -89.3610    16.0960    25.1030 o          1 LYF      -0.822800
     15 O16        -91.1790    15.8760    23.8240 o          1 LYF      -0.822800
     16 O17        -92.1040    11.2900    24.7220 oh         1 LYF      -0.636800
     17 C18        -89.1570    11.1210    24.1530 c3         1 LYF      -0.202400
     18 C20        -87.8310    11.2480    23.3690 c          1 LYF       0.925600
     19 O21        -87.4650    12.3900    23.0290 o          1 LYF      -0.856800
     20 O22        -87.2280    10.1770    23.1510 o          1 LYF      -0.856800
     21 C41        -91.1250    14.6910    25.8630 ce         1 LYF       0.365300
     22 OXT        -93.2560    12.9610    33.1540 o          1 LYF      -0.840800
     23 HN         -96.1960    15.9260    32.1630 hn         1 LYF       0.296300
     24 HNA        -95.9350    15.3040    33.6260 hn         1 LYF       0.296300
     25 HA         -95.1390    13.8350    31.8420 h1         1 LYF      -0.002300
     26 HB         -94.6290    15.7850    30.3730 hc         1 LYF       0.019700
     27 HBA        -93.2730    16.1940    31.4010 hc         1 LYF       0.019700
     28 HD         -91.8430    15.9880    29.2870 hc         1 LYF       0.030700
     29 HDA        -93.2300    15.4670    28.3500 hc         1 LYF       0.030700
     30 HE         -90.7080    13.8210    28.7980 h1         1 LYF       0.021700
     31 HEA        -92.0850    13.3120    27.8380 h1         1 LYF       0.021700
     32 HG         -92.1690    14.0350    30.8290 hc         1 LYF       0.043200
     33 HGA        -93.5700    13.5410    29.9060 hc         1 LYF       0.043200
     34 H11        -92.3480    13.8470    24.3390 hc         1 LYF       0.046700
     35 H11A       -92.8470    13.3890    25.9590 hc         1 LYF       0.046700
     36 H12        -90.8330    11.9750    26.2050 h1         1 LYF       0.009700
     37 H13        -90.2850    12.7620    23.3150 hc         1 LYF       0.075700
     38 H13A       -89.3200    13.1780    24.7150 hc         1 LYF       0.075700
     39 HO17       -91.6560    10.4390    24.6920 ho         1 LYF       0.386000
     40 H18        -88.9170    10.7260    25.1490 hc         1 LYF      -0.000300
     41 H18A       -89.7480    10.3380    23.6670 hc         1 LYF      -0.000300
@<TRIPOS>BOND
     1     1     3 1   
     2     1     4 1   
     3     1    22 1   
     4     2     4 1   
     5     2    23 1   
     6     2    24 1   
     7     4     5 1   
     8     4    25 1   
     9     5     8 1   
    10     5    26 1   
    11     5    27 1   
    12     6     7 1   
    13     6     8 1   
    14     6    28 1   
    15     6    29 1   
    16     7     9 1   
    17     7    30 1   
    18     7    31 1   
    19     8    32 1   
    20     8    33 1   
    21     9    21 2   
    22    10    11 1   
    23    10    21 1   
    24    10    34 1   
    25    10    35 1   
    26    11    12 1   
    27    11    16 1   
    28    11    36 1   
    29    12    17 1   
    30    12    37 1   
    31    12    38 1   
    32    13    14 1   
    33    13    15 1   
    34    13    21 1   
    35    16    39 1   
    36    17    18 1   
    37    17    40 1   
    38    17    41 1   
    39    18    19 1   
    40    18    20 1   
@<TRIPOS>SUBSTRUCTURE
     1 LYF         1 TEMP              0 ****  ****    0 ROOT
