@<TRIPOS>MOLECULE
LYF
   41    40     1     0     0
SMALL
No Charge or Current Charge


@<TRIPOS>ATOM
      1 C          -93.5230    14.3290    33.2350 c          1 LYF       0.719000
      2 N          -95.8990    15.1350    32.4430 n8         1 LYF      -0.970200
      3 O          -92.9200    15.3130    33.6460 o          1 LYF      -0.735500
      4 CA         -94.5860    14.5010    32.0630 c3         1 LYF       0.017500
      5 CB         -93.9890    15.2240    30.8230 c3         1 LYF      -0.046400
      6 CD         -92.2140    15.2170    28.9500 c3         1 LYF      -0.074400
      7 CE         -90.9880    14.4990    28.3440 c3         1 LYF       0.104800
      8 CG         -92.7580    14.5110    30.2120 c3         1 LYF      -0.074400
      9 NZ         -90.5100    15.2140    27.1480 n2         1 LYF      -0.610900
     10 C11        -91.8510    13.7950    25.5640 c3         1 LYF      -0.161700
     11 C12        -91.1740    12.4080    25.4820 c3         1 LYF       0.173300
     12 C13        -90.1270    12.2890    24.3460 c3         1 LYF      -0.099400
     13 C14        -90.3780    15.8440    24.7530 c          1 LYF       0.638700
     14 O15        -89.6220    16.7840    24.9960 o          1 LYF      -0.717500
     15 O16        -90.7390    15.6170    23.6010 o          1 LYF      -0.717500
     16 O17        -92.1890    11.4240    25.2830 oh         1 LYF      -0.699000
     17 C18        -89.4140    10.9090    24.2720 c3         1 LYF      -0.202400
     18 C20        -88.3130    10.9350    23.1920 c          1 LYF       0.715000
     19 O21        -87.1950    11.3050    23.5170 o          1 LYF      -0.751500
     20 O22        -88.6190    10.6350    22.0480 o          1 LYF      -0.751500
     21 C41        -90.8810    14.9360    25.9150 ce         1 LYF       0.365300
     22 OXT        -93.3860    13.2150    33.7270 o          1 LYF      -0.735500
     23 HN         -96.5360    15.0980    31.6400 hn         1 LYF       0.351500
     24 HNA        -96.3580    14.5550    33.1560 hn         1 LYF       0.351500
     25 HA         -94.8460    13.4860    31.7330 h1         1 LYF      -0.002300
     26 HB         -94.7620    15.3040    30.0490 hc         1 LYF       0.019700
     27 HBA        -93.7100    16.2500    31.0960 hc         1 LYF       0.019700
     28 HD         -91.9390    16.2480    29.2050 hc         1 LYF       0.030700
     29 HDA        -93.0120    15.2740    28.2000 hc         1 LYF       0.030700
     30 HE         -90.1910    14.4750    29.0990 h1         1 LYF       0.021700
     31 HEA        -91.2490    13.4560    28.1280 h1         1 LYF       0.021700
     32 HG         -91.9570    14.4540    30.9590 hc         1 LYF       0.043200
     33 HGA        -93.0310    13.4800    29.9570 hc         1 LYF       0.043200
     34 H11        -92.3520    13.9900    24.6100 hc         1 LYF       0.046700
     35 H11A       -92.6660    13.7550    26.2960 hc         1 LYF       0.046700
     36 H12        -90.6620    12.2110    26.4320 h1         1 LYF       0.009700
     37 H13        -90.6060    12.5040    23.3820 hc         1 LYF       0.075700
     38 H13A       -89.3620    13.0620    24.4910 hc         1 LYF       0.075700
     39 HO17       -91.7190    10.6020    25.0240 ho         1 LYF       0.425000
     40 H18        -88.9740    10.7480    25.2650 hc         1 LYF      -0.000300
     41 H18A       -90.1870    10.1750    24.0090 hc         1 LYF      -0.000300
@<TRIPOS>BOND
     1     1     3 1   
     2     1     4 1   
     3     1    22 1   
     4     2     4 1   
     5     2    23 1   
     6     2    24 1   
     7     4     5 1   
     8     4    25 1   
     9     5     8 1   
    10     5    26 1   
    11     5    27 1   
    12     6     7 1   
    13     6     8 1   
    14     6    28 1   
    15     6    29 1   
    16     7     9 1   
    17     7    30 1   
    18     7    31 1   
    19     8    32 1   
    20     8    33 1   
    21     9    21 2   
    22    10    11 1   
    23    10    21 1   
    24    10    34 1   
    25    10    35 1   
    26    11    12 1   
    27    11    16 1   
    28    11    36 1   
    29    12    17 1   
    30    12    37 1   
    31    12    38 1   
    32    13    14 1   
    33    13    15 1   
    34    13    21 1   
    35    16    39 1   
    36    17    18 1   
    37    17    40 1   
    38    17    41 1   
    39    18    19 1   
    40    18    20 1   
@<TRIPOS>SUBSTRUCTURE
     1 LYF         1 TEMP              0 ****  ****    0 ROOT
