@<TRIPOS>MOLECULE
LYG
   36    39     1     0     0
SMALL
abcg2


@<TRIPOS>ATOM
      1 C1           4.8860     1.6100     0.2030 c5         1 LYG       0.165300
      2 N1           3.2120    -0.0250     0.2580 n3         1 LYG      -0.701600
      3 O1           6.2630     1.6980    -0.0780 oh         1 LYG      -0.658000
      4 S1          -3.0490    -2.1110    -0.3000 ss         1 LYG       0.163400
      5 CL1         -2.8020     4.0420     0.5230 cl         1 LYG      -0.198000
      6 C2           3.9560     1.7790    -1.0220 c5         1 LYG      -0.113400
      7 N2           0.4840    -0.5220     0.2970 nc         1 LYG      -0.580300
      8 O2          -0.7830    -4.3470    -0.3650 o          1 LYG      -0.533000
      9 C3           3.1870     0.4630    -1.1120 c5         1 LYG       0.162800
     10 N3           0.8590    -2.8020     0.0000 ns         1 LYG      -0.417400
     11 C4           2.7690    -1.3750     0.4280 c3         1 LYG       0.140500
     12 C5           1.2860    -1.5310     0.2270 cd         1 LYG       0.492900
     13 C6          -0.8330    -0.7950     0.1190 cc         1 LYG       0.216400
     14 C7          -1.8770     0.1940     0.1350 ca         1 LYG      -0.064800
     15 C8          -1.7580     1.5700     0.3260 ca         1 LYG      -0.034000
     16 C9          -2.9060     2.3290     0.2940 ca         1 LYG       0.101000
     17 C10         -4.1650     1.7550     0.0790 ca         1 LYG      -0.081000
     18 C11         -4.2860     0.3940    -0.1110 ca         1 LYG      -0.084000
     19 C12         -3.1340    -0.3870    -0.0820 ca         1 LYG      -0.155000
     20 C13         -1.3330    -2.0540    -0.1040 cd         1 LYG      -0.220600
     21 C14         -0.4620    -3.1880    -0.1730 c          1 LYG       0.601200
     22 C15          4.5710     0.2020     0.7070 c5         1 LYG       0.158800
     23 H1           4.6080     2.3420     0.9700 h1         1 LYG       0.045700
     24 HO1          6.4690     2.6140    -0.2850 ho         1 LYG       0.447000
     25 H2           3.2730     2.6170    -0.8740 hc         1 LYG       0.056700
     26 H2A          4.5260     1.9760    -1.9300 hc         1 LYG       0.056700
     27 H3           3.6970    -0.2380    -1.7940 h1         1 LYG       0.045700
     28 H3A          2.1650     0.5880    -1.4680 h1         1 LYG       0.045700
     29 HN3          1.5520    -3.5390    -0.0510 hn         1 LYG       0.328500
     30 H4           3.2920    -2.0850    -0.2360 h1         1 LYG       0.051200
     31 H4A          2.9890    -1.7020     1.4500 h1         1 LYG       0.051200
     32 H8          -0.7860     2.0170     0.4930 ha         1 LYG       0.151000
     33 H10         -5.0470     2.3800     0.0600 ha         1 LYG       0.130000
     34 H11         -5.2600    -0.0460    -0.2800 ha         1 LYG       0.129000
     35 H15          5.2850    -0.5050     0.2490 h1         1 LYG       0.050700
     36 H15A         4.6520     0.1020     1.7920 h1         1 LYG       0.050700
@<TRIPOS>BOND
     1     1     3 1   
     2     1     6 1   
     3     1    22 1   
     4     1    23 1   
     5     2     9 1   
     6     2    11 1   
     7     2    22 1   
     8     3    24 1   
     9     4    19 1   
    10     4    20 1   
    11     5    16 1   
    12     6     9 1   
    13     6    25 1   
    14     6    26 1   
    15     7    12 2   
    16     7    13 1   
    17     8    21 2   
    18     9    27 1   
    19     9    28 1   
    20    10    12 1   
    21    10    21 1   
    22    10    29 1   
    23    11    12 1   
    24    11    30 1   
    25    11    31 1   
    26    13    14 1   
    27    13    20 2   
    28    14    15 ar  
    29    14    19 ar  
    30    15    16 ar  
    31    15    32 1   
    32    16    17 ar  
    33    17    18 ar  
    34    17    33 1   
    35    18    19 ar  
    36    18    34 1   
    37    20    21 1   
    38    22    35 1   
    39    22    36 1   
@<TRIPOS>SUBSTRUCTURE
     1 LYG         1 TEMP              0 ****  ****    0 ROOT
