@<TRIPOS>MOLECULE
LYG
   36    39     1     0     0
SMALL
No Charge or Current Charge


@<TRIPOS>ATOM
      1 C1           5.5170     1.3080    -0.2420 c5         1 LYG       0.165300
      2 N1           3.3940     0.2720     0.2300 n3         1 LYG      -0.701600
      3 O1           6.8530     0.8020    -0.3400 oh         1 LYG      -0.658000
      4 S1          -2.8920    -1.7140    -1.3830 ss         1 LYG       0.163400
      5 Cl1         -4.1910     3.2420     2.3290 cl         1 LYG      -0.198000
      6 C2           4.6960     1.0040    -1.5350 c5         1 LYG      -0.113400
      7 N2           0.0820    -0.1350     0.7510 nc         1 LYG      -0.580300
      8 O2          -0.1260    -3.2840    -1.8890 o          1 LYG      -0.533000
      9 C3           3.8020    -0.1840    -1.1130 c5         1 LYG       0.162800
     10 N3           1.0400    -1.9580    -0.4720 ns         1 LYG      -0.417400
     11 C4           2.4950    -0.6350     1.0090 c3         1 LYG       0.140500
     12 C5           1.1180    -0.9030     0.4050 cd         1 LYG       0.492900
     13 C6          -1.1080    -0.4680     0.1430 cc         1 LYG       0.216400
     14 C7          -2.3600     0.2210     0.3580 ca         1 LYG      -0.064800
     15 C8          -2.5820     1.3220     1.2020 ca         1 LYG      -0.034000
     16 C9          -3.8800     1.8620     1.2820 ca         1 LYG       0.101000
     17 C10         -4.9340     1.3040     0.5270 ca         1 LYG      -0.081000
     18 C11         -4.6940     0.1990    -0.3140 ca         1 LYG      -0.084000
     19 C12         -3.3950    -0.3270    -0.3830 ca         1 LYG      -0.155000
     20 C13         -1.2380    -1.5090    -0.7500 cd         1 LYG      -0.220600
     21 C14         -0.0950    -2.3440    -1.1110 c          1 LYG       0.601200
     22 C15          4.6900     0.5920     0.8840 c5         1 LYG       0.158800
     23 H1           5.5400     2.3920    -0.0640 h1         1 LYG       0.045700
     24 HO1          7.3000     1.3200    -1.0460 ho         1 LYG       0.447000
     25 H2           4.0810     1.8670    -1.8120 hc         1 LYG       0.056700
     26 H2A          5.3220     0.7650    -2.4020 hc         1 LYG       0.056700
     27 H3           4.3680    -1.1260    -1.0730 h1         1 LYG       0.045700
     28 H3A          2.9510    -0.3160    -1.7950 h1         1 LYG       0.045700
     29 HN3          1.8660    -2.4980    -0.6820 hn         1 LYG       0.328500
     30 H4           2.9930    -1.6010     1.1670 h1         1 LYG       0.051200
     31 H4A          2.3360    -0.2080     2.0070 h1         1 LYG       0.051200
     32 H8          -1.7690     1.7510     1.7820 ha         1 LYG       0.151000
     33 H10         -5.9320     1.7280     0.5960 ha         1 LYG       0.130000
     34 H11         -5.5030    -0.2370    -0.8990 ha         1 LYG       0.129000
     35 H15          5.1990    -0.3230     1.2190 h1         1 LYG       0.050700
     36 H15A         4.5550     1.2400     1.7610 h1         1 LYG       0.050700
@<TRIPOS>BOND
     1     1     3 1   
     2     1     6 1   
     3     1    22 1   
     4     1    23 1   
     5     2     9 1   
     6     2    11 1   
     7     2    22 1   
     8     3    24 1   
     9     4    19 1   
    10     4    20 1   
    11     5    16 1   
    12     6     9 1   
    13     6    25 1   
    14     6    26 1   
    15     7    12 2   
    16     7    13 1   
    17     8    21 2   
    18     9    27 1   
    19     9    28 1   
    20    10    12 1   
    21    10    21 1   
    22    10    29 1   
    23    11    12 1   
    24    11    30 1   
    25    11    31 1   
    26    13    14 1   
    27    13    20 2   
    28    14    15 ar  
    29    14    19 ar  
    30    15    16 ar  
    31    15    32 1   
    32    16    17 ar  
    33    17    18 ar  
    34    17    33 1   
    35    18    19 ar  
    36    18    34 1   
    37    20    21 1   
    38    22    35 1   
    39    22    36 1   
@<TRIPOS>SUBSTRUCTURE
     1 LYG         1 TEMP              0 ****  ****    0 ROOT
