@<TRIPOS>MOLECULE
LYH
   21    20     1     0     0
SMALL
No Charge or Current Charge


@<TRIPOS>ATOM
      1 N           61.8780  -135.7490    37.7490 n8         1 LYH      -0.889800
      2 CA          61.5470  -135.4130    39.1860 c3         1 LYH       0.035700
      3 C           62.7480  -135.2980    40.2340 c          1 LYH       0.937600
      4 O           63.6080  -136.1760    40.2710 o          1 LYH      -0.827800
      5 CB          60.4480  -136.3330    39.6970 c2         1 LYH      -0.073200
      6 CG          60.4400  -137.6760    39.6320 c2         1 LYH      -0.259200
      7 CD          59.3320  -138.5780    40.1480 c3         1 LYH      -0.027200
      8 CE          59.8100  -139.5890    41.2150 c3         1 LYH       0.159800
      9 NZ          60.3070  -138.9230    42.4310 n8         1 LYH      -0.890800
     10 OXT         62.7940  -134.3100    40.9630 o          1 LYH      -0.827800
     11 H           61.0300  -135.6650    37.1800 hn         1 LYH       0.327800
     12 H2          62.5180  -135.0420    37.3730 hn         1 LYH       0.327800
     13 HA          61.1100  -134.4070    39.1370 h1         1 LYH       0.005700
     14 HB          59.6120  -135.8050    40.1570 ha         1 LYH       0.119000
     15 HG          61.2770  -138.2050    39.1760 ha         1 LYH       0.123000
     16 HD1         58.5100  -137.9820    40.5640 hc         1 LYH       0.029200
     17 HD2         58.9050  -139.1410    39.3090 hc         1 LYH       0.029200
     18 HE1         58.9810  -140.2520    41.4980 h1         1 LYH       0.006700
     19 HE2         60.6200  -140.2040    40.8020 h1         1 LYH       0.006700
     20 HZ1         60.7350  -139.6240    43.0440 hn         1 LYH       0.343800
     21 HZ2         61.0820  -138.3080    42.1650 hn         1 LYH       0.343800
@<TRIPOS>BOND
     1     1     2 1   
     2     1    11 1   
     3     1    12 1   
     4     2     3 1   
     5     2     5 1   
     6     2    13 1   
     7     3     4 1   
     8     3    10 1   
     9     5     6 2   
    10     5    14 1   
    11     6     7 1   
    12     6    15 1   
    13     7     8 1   
    14     7    16 1   
    15     7    17 1   
    16     8     9 1   
    17     8    18 1   
    18     8    19 1   
    19     9    20 1   
    20     9    21 1   
@<TRIPOS>SUBSTRUCTURE
     1 LYH         1 TEMP              0 ****  ****    0 ROOT
