@<TRIPOS>MOLECULE
LYH
   21    20     1     0     0
SMALL
bcc


@<TRIPOS>ATOM
      1 N           62.1300  -136.1680    38.0400 n8         1 LYH      -0.889800
      2 CA          61.5110  -135.4940    39.1630 c3         1 LYH       0.035700
      3 C           62.5740  -135.0240    40.2040 c          1 LYH       0.937600
      4 O           63.7660  -135.0620    39.8450 o          1 LYH      -0.827800
      5 CB          60.4670  -136.3430    39.8280 c2         1 LYH      -0.073200
      6 CG          60.2030  -137.6180    39.5560 c2         1 LYH      -0.259200
      7 CD          59.1730  -138.4420    40.2660 c3         1 LYH      -0.027200
      8 CE          59.8040  -139.5310    41.1320 c3         1 LYH       0.159800
      9 NZ          60.5530  -138.9420    42.2300 n8         1 LYH      -0.890800
     10 OXT         62.1270  -134.6190    41.2930 o          1 LYH      -0.827800
     11 H           61.5360  -136.1030    37.2240 hn         1 LYH       0.327800
     12 H2          62.9960  -135.6950    37.8220 hn         1 LYH       0.327800
     13 HA          61.0000  -134.5620    38.8580 h1         1 LYH       0.005700
     14 HB          59.8820  -135.8420    40.5940 ha         1 LYH       0.119000
     15 HG          60.7870  -138.1280    38.7940 ha         1 LYH       0.123000
     16 HD1         58.5440  -137.8060    40.8960 hc         1 LYH       0.029200
     17 HD2         58.5130  -138.9230    39.5370 hc         1 LYH       0.029200
     18 HE1         59.0100  -140.1550    41.5510 h1         1 LYH       0.006700
     19 HE2         60.4050  -140.1890    40.4870 h1         1 LYH       0.006700
     20 HZ1         61.0160  -139.6720    42.7570 hn         1 LYH       0.343800
     21 HZ2         61.2930  -138.3610    41.8530 hn         1 LYH       0.343800
@<TRIPOS>BOND
     1     1     2 1   
     2     1    11 1   
     3     1    12 1   
     4     2     3 1   
     5     2     5 1   
     6     2    13 1   
     7     3     4 1   
     8     3    10 1   
     9     5     6 2   
    10     5    14 1   
    11     6     7 1   
    12     6    15 1   
    13     7     8 1   
    14     7    16 1   
    15     7    17 1   
    16     8     9 1   
    17     8    18 1   
    18     8    19 1   
    19     9    20 1   
    20     9    21 1   
@<TRIPOS>SUBSTRUCTURE
     1 LYH         1 TEMP              0 ****  ****    0 ROOT
