@<TRIPOS>MOLECULE
LYJ
   25    24     1     0     0
SMALL
abcg2


@<TRIPOS>ATOM
      1 C           -2.8600    -0.7620     0.2000 c3         1 LYJ       0.172600
      2 N           -1.9330     1.4840     0.3710 n8         1 LYJ      -0.974200
      3 O           -4.0620    -0.2550    -0.3310 oh         1 LYJ      -0.639000
      4 CA          -1.7010     0.1500    -0.1670 c3         1 LYJ       0.155500
      5 CB          -0.3820    -0.4940     0.2730 c3         1 LYJ      -0.118400
      6 CD           2.1550    -0.4240     0.2030 c3         1 LYJ      -0.078400
      7 CE           3.3880     0.2630    -0.3640 c3         1 LYJ       0.150800
      8 CG           0.8550     0.2330    -0.2400 c3         1 LYJ      -0.075400
      9 NZ           4.6070    -0.4010     0.0780 n8         1 LYJ      -0.997200
     10 H           -2.9100    -0.8500     1.2960 h1         1 LYJ       0.013200
     11 HA          -2.6460    -1.7670    -0.1850 h1         1 LYJ       0.013200
     12 HN          -1.8800     1.4480     1.3840 hn         1 LYJ       0.389000
     13 HNA         -1.1870     2.1060     0.0830 hn         1 LYJ       0.389000
     14 HO          -4.7640    -0.8760    -0.1190 ho         1 LYJ       0.436000
     15 HAA         -1.6810     0.2400    -1.2600 h1         1 LYJ       0.071700
     16 HB          -0.3530    -0.5420     1.3680 hc         1 LYJ       0.043200
     17 HBA         -0.3470    -1.5300    -0.0780 hc         1 LYJ       0.043200
     18 HD           2.1630    -1.4760    -0.1000 hc         1 LYJ       0.046700
     19 HDA          2.2090    -0.4190     1.2980 hc         1 LYJ       0.046700
     20 HE           3.3510     0.2150    -1.4560 h1         1 LYJ       0.026700
     21 HEA          3.3520     1.3310    -0.1040 h1         1 LYJ       0.026700
     22 HG           0.8190     0.2660    -1.3350 hc         1 LYJ       0.037200
     23 HGA          0.8470     1.2760     0.0950 hc         1 LYJ       0.037200
     24 HNZ          5.4080     0.0430    -0.3520 hn         1 LYJ       0.392000
     25 HNZA         4.7200    -0.2610     1.0740 hn         1 LYJ       0.392000
@<TRIPOS>BOND
     1     1     3 1   
     2     1     4 1   
     3     1    10 1   
     4     1    11 1   
     5     2     4 1   
     6     2    12 1   
     7     2    13 1   
     8     3    14 1   
     9     4     5 1   
    10     4    15 1   
    11     5     8 1   
    12     5    16 1   
    13     5    17 1   
    14     6     7 1   
    15     6     8 1   
    16     6    18 1   
    17     6    19 1   
    18     7     9 1   
    19     7    20 1   
    20     7    21 1   
    21     8    22 1   
    22     8    23 1   
    23     9    24 1   
    24     9    25 1   
@<TRIPOS>SUBSTRUCTURE
     1 LYJ         1 TEMP              0 ****  ****    0 ROOT
