@<TRIPOS>MOLECULE
LYJ
   25    24     1     0     0
SMALL
No Charge or Current Charge


@<TRIPOS>ATOM
      1 C           -2.9500    -0.7820     0.2160 c3         1 LYJ       0.172600
      2 N           -1.8750     1.5170     0.2880 n8         1 LYJ      -0.974200
      3 O           -4.1880    -0.3050    -0.3380 oh         1 LYJ      -0.639000
      4 CA          -1.7420     0.1200    -0.2040 c3         1 LYJ       0.155500
      5 CB          -0.3930    -0.4810     0.2700 c3         1 LYJ      -0.118400
      6 CD           2.1840    -0.4360     0.1660 c3         1 LYJ      -0.078400
      7 CE           3.4370     0.2900    -0.3660 c3         1 LYJ       0.150800
      8 CG           0.8660     0.2490    -0.2620 c3         1 LYJ      -0.075400
      9 NZ           4.6770    -0.3880     0.0550 n8         1 LYJ      -0.997200
     10 H           -3.0130    -0.8140     1.3120 h1         1 LYJ       0.013200
     11 HA          -2.7630    -1.8080    -0.1310 h1         1 LYJ       0.013200
     12 HN          -1.9620     1.5000     1.3100 hn         1 LYJ       0.389000
     13 HNA         -0.9890     2.0070     0.1280 hn         1 LYJ       0.389000
     14 HO          -4.8990    -0.8810     0.0200 ho         1 LYJ       0.436000
     15 HAA         -1.7200     0.1490    -1.3040 h1         1 LYJ       0.071700
     16 HB          -0.3670    -0.5000     1.3670 hc         1 LYJ       0.043200
     17 HBA         -0.3470    -1.5270    -0.0580 hc         1 LYJ       0.043200
     18 HD           2.1860    -1.4710    -0.1980 hc         1 LYJ       0.046700
     19 HDA          2.2280    -0.4780     1.2610 hc         1 LYJ       0.046700
     20 HE           3.4090     0.3200    -1.4650 h1         1 LYJ       0.026700
     21 HEA          3.4550     1.3230     0.0100 h1         1 LYJ       0.026700
     22 HG           0.8230     0.2900    -1.3570 hc         1 LYJ       0.037200
     23 HGA          0.8770     1.2850     0.0980 hc         1 LYJ       0.037200
     24 HNZ          5.4840     0.1620    -0.2660 hn         1 LYJ       0.392000
     25 HNZA         4.7490    -0.3440     1.0780 hn         1 LYJ       0.392000
@<TRIPOS>BOND
     1     1     3 1   
     2     1     4 1   
     3     1    10 1   
     4     1    11 1   
     5     2     4 1   
     6     2    12 1   
     7     2    13 1   
     8     3    14 1   
     9     4     5 1   
    10     4    15 1   
    11     5     8 1   
    12     5    16 1   
    13     5    17 1   
    14     6     7 1   
    15     6     8 1   
    16     6    18 1   
    17     6    19 1   
    18     7     9 1   
    19     7    20 1   
    20     7    21 1   
    21     8    22 1   
    22     8    23 1   
    23     9    24 1   
    24     9    25 1   
@<TRIPOS>SUBSTRUCTURE
     1 LYJ         1 TEMP              0 ****  ****    0 ROOT
