@<TRIPOS>MOLECULE
LYK
   26    25     1     0     0
SMALL
No Charge or Current Charge


@<TRIPOS>ATOM
      1 C            5.1850    10.2150    15.7480 c3         1 LYK       0.339900
      2 N            6.7550    11.7820    14.5070 n8         1 LYK      -0.898800
      3 O            3.8600     9.7010    15.7620 oh         1 LYK      -0.613800
      4 CA           5.4660    11.0400    14.4330 c3         1 LYK       0.177500
      5 CB           5.4230    10.1590    13.1540 c3         1 LYK      -0.073400
      6 CD           5.4030    10.0450    10.5750 c3         1 LYK      -0.078400
      7 CE           5.5050    10.8330     9.2530 c3         1 LYK       0.149800
      8 CG           5.5250    10.9480    11.8230 c3         1 LYK      -0.076400
      9 NZ           5.3820     9.9450     8.0840 n8         1 LYK      -0.884800
     10 OXT          5.3030    11.0430    16.9000 oh         1 LYK      -0.613800
     11 H            6.7390    12.5410    13.8210 hn         1 LYK       0.348800
     12 H2           6.7860    12.2600    15.4140 hn         1 LYK       0.348800
     13 HO           3.8810     8.8950    16.3170 ho         1 LYK       0.405500
     14 HA           4.6690    11.7920    14.3540 h1         1 LYK       0.041700
     15 HB           6.2300     9.4170    13.2000 hc         1 LYK       0.052700
     16 HBA          4.4820     9.5950    13.1450 hc         1 LYK       0.052700
     17 HD           4.4420     9.5160    10.6060 hc         1 LYK       0.047200
     18 HDA          6.1920     9.2830    10.6040 hc         1 LYK       0.047200
     19 HE           4.7050    11.5850     9.2070 h1         1 LYK       0.025200
     20 HEA          6.4730    11.3490     9.2010 h1         1 LYK       0.025200
     21 HG           4.7340    11.7080    11.7940 hc         1 LYK       0.036700
     22 HGA          6.4830    11.4800    11.7810 hc         1 LYK       0.036700
     23 HNZ          5.5100    10.4980     7.2300 hn         1 LYK       0.335800
     24 HNZA         6.1690     9.2880     8.0810 hn         1 LYK       0.335800
     25 HXT          5.5920    10.4590    17.6310 ho         1 LYK       0.405500
     26 H1           5.8990     9.3850    15.8240 h2         1 LYK       0.027700
@<TRIPOS>BOND
     1     1     3 1   
     2     1     4 1   
     3     1    10 1   
     4     1    26 1   
     5     2     4 1   
     6     2    11 1   
     7     2    12 1   
     8     3    13 1   
     9     4     5 1   
    10     4    14 1   
    11     5     8 1   
    12     5    15 1   
    13     5    16 1   
    14     6     7 1   
    15     6     8 1   
    16     6    17 1   
    17     6    18 1   
    18     7     9 1   
    19     7    19 1   
    20     7    20 1   
    21     8    21 1   
    22     8    22 1   
    23     9    23 1   
    24     9    24 1   
    25    10    25 1   
@<TRIPOS>SUBSTRUCTURE
     1 LYK         1 TEMP              0 ****  ****    0 ROOT
