@<TRIPOS>MOLECULE
LYK
   26    25     1     0     0
SMALL
bcc


@<TRIPOS>ATOM
      1 C            5.2240    10.2140    15.6760 c3         1 LYK       0.339900
      2 N            6.6670    11.7680    14.5240 n8         1 LYK      -0.898800
      3 O            4.0190     9.5140    15.5760 oh         1 LYK      -0.613800
      4 CA           5.4070    11.0450    14.4090 c3         1 LYK       0.177500
      5 CB           5.4200    10.1590    13.1650 c3         1 LYK      -0.073400
      6 CD           5.3680    10.0690    10.6320 c3         1 LYK      -0.078400
      7 CE           5.5730    10.8320     9.3330 c3         1 LYK       0.149800
      8 CG           5.5970    10.9340    11.8640 c3         1 LYK      -0.076400
      9 NZ           5.3030     9.9860     8.1780 n8         1 LYK      -0.884800
     10 OXT          5.2230    11.0970    16.7640 oh         1 LYK      -0.613800
     11 H            6.7890    12.3710    13.7220 hn         1 LYK       0.348800
     12 H2           6.6290    12.3850    15.3250 hn         1 LYK       0.348800
     13 HO           4.0310     8.7710    16.1870 ho         1 LYK       0.405500
     14 HA           4.5370    11.7200    14.3280 h1         1 LYK       0.041700
     15 HB           6.2190     9.4150    13.2610 hc         1 LYK       0.052700
     16 HBA          4.4800     9.6070    13.1180 hc         1 LYK       0.052700
     17 HD           4.3530     9.6610    10.6500 hc         1 LYK       0.047200
     18 HDA          6.0470     9.2090    10.6580 hc         1 LYK       0.047200
     19 HE           4.8790    11.6770     9.3060 h1         1 LYK       0.025200
     20 HEA          6.5830    11.2670     9.3330 h1         1 LYK       0.025200
     21 HG           4.8980    11.7780    11.8450 hc         1 LYK       0.036700
     22 HGA          6.6010    11.3660    11.8120 hc         1 LYK       0.036700
     23 HNZ          5.4160    10.5270     7.3300 hn         1 LYK       0.335800
     24 HNZA         6.0030     9.2570     8.1280 hn         1 LYK       0.335800
     25 HXT          5.4590    10.6190    17.5650 ho         1 LYK       0.405500
     26 H1           6.0690     9.5140    15.7610 h2         1 LYK       0.027700
@<TRIPOS>BOND
     1     1     3 1   
     2     1     4 1   
     3     1    10 1   
     4     1    26 1   
     5     2     4 1   
     6     2    11 1   
     7     2    12 1   
     8     3    13 1   
     9     4     5 1   
    10     4    14 1   
    11     5     8 1   
    12     5    15 1   
    13     5    16 1   
    14     6     7 1   
    15     6     8 1   
    16     6    17 1   
    17     6    18 1   
    18     7     9 1   
    19     7    19 1   
    20     7    20 1   
    21     8    21 1   
    22     8    22 1   
    23     9    23 1   
    24     9    24 1   
    25    10    25 1   
@<TRIPOS>SUBSTRUCTURE
     1 LYK         1 TEMP              0 ****  ****    0 ROOT
