@<TRIPOS>MOLECULE
LYL
   23    23     1     0     0
SMALL
bcc


@<TRIPOS>ATOM
      1 C1          -0.6930    -0.3020    -0.3760 ca         1 LYL      -0.166300
      2 C2           0.4670    -0.0610     0.3700 ca         1 LYL       0.147100
      3 C3          -1.9210    -0.2710     0.2810 ca         1 LYL      -0.092000
      4 C4          -0.6210    -0.6050    -1.8530 c3         1 LYL      -0.003900
      5 C5           0.4090     0.1860     1.7460 ca         1 LYL      -0.107300
      6 C15          1.6680     0.4320     2.5250 c3         1 LYL      -0.032800
      7 O6           1.7000    -0.0770    -0.1850 oh         1 LYL      -0.507100
      8 C7          -2.0020    -0.0230     1.6410 ca         1 LYL      -0.162000
      9 C8          -0.8360     0.1970     2.3630 ca         1 LYL      -0.096000
     10 C13         -0.0640     0.5340    -2.6580 c2         1 LYL      -0.174200
     11 C14          0.9790     0.4410    -3.4790 c2         1 LYL      -0.228000
     12 HC3         -2.8230    -0.4550    -0.2900 ha         1 LYL       0.127000
     13 HC41        -0.0300    -1.5090    -2.0360 hc         1 LYL       0.056200
     14 HC42        -1.6310    -0.8260    -2.2070 hc         1 LYL       0.056200
     15 H151         2.3630    -0.4060     2.4490 hc         1 LYL       0.042367
     16 H152         2.1970     1.3170     2.1670 hc         1 LYL       0.042367
     17 H153         1.4450     0.5820     3.5800 hc         1 LYL       0.042367
     18 HO6          1.6510    -0.0100    -1.1470 ho         1 LYL       0.432000
     19 HC7         -2.9630    -0.0050     2.1370 ha         1 LYL       0.133000
     20 HC8         -0.8910     0.3840     3.4290 ha         1 LYL       0.130000
     21 H13         -0.5620     1.4910    -2.5360 ha         1 LYL       0.128000
     22 H141         1.3370     1.2970    -4.0360 ha         1 LYL       0.116000
     23 H142         1.5030    -0.4960    -3.6330 ha         1 LYL       0.116000
@<TRIPOS>BOND
     1     1     2 ar  
     2     1     3 ar  
     3     1     4 1   
     4     2     5 ar  
     5     2     7 1   
     6     3     8 ar  
     7     3    12 1   
     8     4    10 1   
     9     4    13 1   
    10     4    14 1   
    11     5     6 1   
    12     5     9 ar  
    13     6    15 1   
    14     6    16 1   
    15     6    17 1   
    16     7    18 1   
    17     8     9 ar  
    18     8    19 1   
    19     9    20 1   
    20    10    11 2   
    21    10    21 1   
    22    11    22 1   
    23    11    23 1   
@<TRIPOS>SUBSTRUCTURE
     1 LYL         1 TEMP              0 ****  ****    0 ROOT
