@<TRIPOS>MOLECULE
LYL
   23    23     1     0     0
SMALL
No Charge or Current Charge


@<TRIPOS>ATOM
      1 C1          -0.7220    -0.2820    -0.3830 ca         1 LYL      -0.166300
      2 C2           0.4620    -0.0230     0.3440 ca         1 LYL       0.147100
      3 C3          -1.9530    -0.3170     0.3020 ca         1 LYL      -0.074000
      4 C4          -0.6910    -0.5570    -1.8870 c3         1 LYL      -0.003900
      5 C5           0.4180     0.1940     1.7400 ca         1 LYL      -0.107300
      6 C15          1.6920     0.4750     2.5320 c3         1 LYL      -0.032800
      7 O6           1.6540     0.0260    -0.3180 oh         1 LYL      -0.546100
      8 C7          -2.0020    -0.0960     1.6870 ca         1 LYL      -0.144000
      9 C8          -0.8230     0.1560     2.4050 ca         1 LYL      -0.078000
     10 C13          0.0020     0.5400    -2.6700 c2         1 LYL      -0.224200
     11 C14          1.0960     0.3750    -3.4320 c2         1 LYL      -0.328000
     12 HC3         -2.8770    -0.5190    -0.2370 ha         1 LYL       0.109000
     13 HC41        -0.1990    -1.5220    -2.0680 hc         1 LYL       0.056200
     14 HC42        -1.7110    -0.6760    -2.2740 hc         1 LYL       0.056200
     15 H151         2.4050    -0.3530     2.4360 hc         1 LYL       0.042367
     16 H152         2.1850     1.3860     2.1740 hc         1 LYL       0.042367
     17 H153         1.4880     0.6090     3.6010 hc         1 LYL       0.042367
     18 HO6          1.4370     0.0640    -1.2770 ho         1 LYL       0.471000
     19 HC7         -2.9570    -0.1250     2.2070 ha         1 LYL       0.115000
     20 HC8         -0.8750     0.3240     3.4790 ha         1 LYL       0.112000
     21 H13         -0.4650     1.5240    -2.5750 ha         1 LYL       0.178000
     22 H141         1.5430     1.2100    -3.9750 ha         1 LYL       0.166000
     23 H142         1.5760    -0.5980    -3.5590 ha         1 LYL       0.166000
@<TRIPOS>BOND
     1     1     2 ar  
     2     1     3 ar  
     3     1     4 1   
     4     2     5 ar  
     5     2     7 1   
     6     3     8 ar  
     7     3    12 1   
     8     4    10 1   
     9     4    13 1   
    10     4    14 1   
    11     5     6 1   
    12     5     9 ar  
    13     6    15 1   
    14     6    16 1   
    15     6    17 1   
    16     7    18 1   
    17     8     9 ar  
    18     8    19 1   
    19     9    20 1   
    20    10    11 2   
    21    10    21 1   
    22    11    22 1   
    23    11    23 1   
@<TRIPOS>SUBSTRUCTURE
     1 LYL         1 TEMP              0 ****  ****    0 ROOT
