@<TRIPOS>MOLECULE
LYN
   26    25     1     0     0
SMALL
bcc


@<TRIPOS>ATOM
      1 N            1.5870     1.7800     0.3920 n8         1 LYN      -0.858800
      2 CA           1.4430     0.3400     0.4760 c3         1 LYN       0.084500
      3 CB           0.1920    -0.2490    -0.2010 c3         1 LYN      -0.120400
      4 CG          -1.1090     0.2990     0.3690 c3         1 LYN      -0.071400
      5 CD          -2.3300    -0.3490    -0.2730 c3         1 LYN      -0.107400
      6 CE          -3.6100     0.2210     0.3020 c3         1 LYN       0.125800
      7 NZ          -4.8060    -0.4040    -0.3210 nz         1 LYN      -0.836600
      8 C            2.6690    -0.3100    -0.1540 c          1 LYN       0.678100
      9 O            3.2150     0.1730    -1.1350 o          1 LYN      -0.579100
     10 NT           3.0610    -1.4590     0.4140 nt         1 LYN      -0.673000
     11 H            1.5620     2.0730    -0.5770 hn         1 LYN       0.350300
     12 H2           0.8020     2.2280     0.8460 hn         1 LYN       0.350300
     13 HA           1.4070     0.0730     1.5370 h1         1 LYN       0.066700
     14 HB2          0.2370    -0.0490    -1.2760 hc         1 LYN       0.059200
     15 HB3          0.2010    -1.3370    -0.0850 hc         1 LYN       0.059200
     16 HG2         -1.1350     0.1340     1.4500 hc         1 LYN       0.054700
     17 HG3         -1.1610     1.3810     0.2150 hc         1 LYN       0.054700
     18 HD2         -2.3080    -0.1860    -1.3550 hc         1 LYN       0.067700
     19 HD3         -2.3020    -1.4310    -0.1130 hc         1 LYN       0.067700
     20 HE2         -3.6860     0.0430     1.3730 hx         1 LYN       0.107200
     21 HE3         -3.6890     1.2920     0.1240 hx         1 LYN       0.107200
     22 HZ1         -4.8250    -0.2640    -1.3310 hn         1 LYN       0.458467
     23 HZ2         -4.8390    -1.4100    -0.1560 hn         1 LYN       0.458467
     24 HZ3         -5.6700    -0.0130     0.0510 hn         1 LYN       0.458467
     25 HNT1         2.5910    -1.8410     1.2160 hn         1 LYN       0.319000
     26 HNT2         3.8040    -2.0050     0.0080 hn         1 LYN       0.319000
@<TRIPOS>BOND
     1     1     2 1   
     2     1    11 1   
     3     1    12 1   
     4     2     3 1   
     5     2     8 1   
     6     2    13 1   
     7     3     4 1   
     8     3    14 1   
     9     3    15 1   
    10     4     5 1   
    11     4    16 1   
    12     4    17 1   
    13     5     6 1   
    14     5    18 1   
    15     5    19 1   
    16     6     7 1   
    17     6    20 1   
    18     6    21 1   
    19     7    22 1   
    20     7    23 1   
    21     7    24 1   
    22     8     9 2   
    23     8    10 1   
    24    10    25 1   
    25    10    26 1   
@<TRIPOS>SUBSTRUCTURE
     1 LYN         1 TEMP              0 ****  ****    0 ROOT
