@<TRIPOS>MOLECULE
LYN
   26    25     1     0     0
SMALL
No Charge or Current Charge


@<TRIPOS>ATOM
      1 N            1.5570     1.9130     0.2780 n8         1 LYN      -0.858800
      2 CA           1.5150     0.4210     0.4280 c3         1 LYN       0.084500
      3 CB           0.2320    -0.1490    -0.2390 c3         1 LYN      -0.120400
      4 CG          -1.0960     0.3430     0.3900 c3         1 LYN      -0.071400
      5 CD          -2.3400    -0.3080    -0.2540 c3         1 LYN      -0.107400
      6 CE          -3.6560     0.1820     0.3730 c3         1 LYN       0.125800
      7 NZ          -4.8390    -0.4760    -0.2810 nz         1 LYN      -0.836600
      8 C            2.8070    -0.3520    -0.0420 c          1 LYN       0.678100
      9 O            3.6750     0.1360    -0.7510 o          1 LYN      -0.579100
     10 NT           2.9380    -1.6320     0.3830 nt         1 LYN      -0.673000
     11 H            1.7040     2.1500    -0.7090 hn         1 LYN       0.350300
     12 H2           0.6380     2.3060     0.5030 hn         1 LYN       0.350300
     13 HA           1.4350     0.2140     1.5050 h1         1 LYN       0.066700
     14 HB2          0.2430     0.0920    -1.3100 hc         1 LYN       0.059200
     15 HB3          0.2540    -1.2440    -0.1720 hc         1 LYN       0.059200
     16 HG2         -1.0900     0.1220     1.4650 hc         1 LYN       0.054700
     17 HG3         -1.1760     1.4320     0.2870 hc         1 LYN       0.054700
     18 HD2         -2.3490    -0.0890    -1.3290 hc         1 LYN       0.067700
     19 HD3         -2.2750    -1.3990    -0.1470 hc         1 LYN       0.067700
     20 HE2         -3.6620    -0.0500     1.4430 hx         1 LYN       0.107200
     21 HE3         -3.7370     1.2680     0.2540 hx         1 LYN       0.107200
     22 HZ1         -4.8960    -0.2790    -1.2910 hn         1 LYN       0.458467
     23 HZ2         -4.8270    -1.5020    -0.1870 hn         1 LYN       0.458467
     24 HZ3         -5.7360    -0.1640     0.1200 hn         1 LYN       0.458467
     25 HNT1         2.2310    -2.0450     0.9730 hn         1 LYN       0.319000
     26 HNT2         3.7520    -2.1600     0.1060 hn         1 LYN       0.319000
@<TRIPOS>BOND
     1     1     2 1   
     2     1    11 1   
     3     1    12 1   
     4     2     3 1   
     5     2     8 1   
     6     2    13 1   
     7     3     4 1   
     8     3    14 1   
     9     3    15 1   
    10     4     5 1   
    11     4    16 1   
    12     4    17 1   
    13     5     6 1   
    14     5    18 1   
    15     5    19 1   
    16     6     7 1   
    17     6    20 1   
    18     6    21 1   
    19     7    22 1   
    20     7    23 1   
    21     7    24 1   
    22     8     9 2   
    23     8    10 1   
    24    10    25 1   
    25    10    26 1   
@<TRIPOS>SUBSTRUCTURE
     1 LYN         1 TEMP              0 ****  ****    0 ROOT
