@<TRIPOS>MOLECULE
LYO
   24    23     1     0     0
SMALL
No Charge or Current Charge


@<TRIPOS>ATOM
      1 N           61.7220  -136.4680    37.6000 n8         1 LYO      -0.888800
      2 CA          60.8780  -136.3640    38.8510 c3         1 LYO       0.025500
      3 C           61.4600  -135.4680    40.0380 c          1 LYO       0.933600
      4 O           61.1570  -134.2780    40.0740 o          1 LYO      -0.846300
      5 CB          60.4760  -137.7910    39.3270 c3         1 LYO      -0.037400
      6 CG          59.5010  -137.8290    40.5400 c3         1 LYO       0.137100
      7 OG          58.2990  -137.1240    40.2040 oh         1 LYO      -0.615800
      8 CD          59.1120  -139.2670    40.9780 c3         1 LYO      -0.097400
      9 CE          60.2760  -140.1490    41.4870 c3         1 LYO       0.167800
     10 NZ          60.9140  -139.5970    42.6930 n8         1 LYO      -0.913800
     11 OXT         62.2320  -135.9670    40.8530 o          1 LYO      -0.846300
     12 H           61.1970  -136.9700    36.8770 hn         1 LYO       0.325800
     13 H2          61.8630  -135.5290    37.2100 hn         1 LYO       0.325800
     14 HA          59.9540  -135.8670    38.5270 h1         1 LYO       0.006700
     15 HB1         60.0170  -138.3320    38.4900 hc         1 LYO       0.034700
     16 HB2         61.3910  -138.3370    39.5850 hc         1 LYO       0.034700
     17 HG          59.9850  -137.3370    41.3950 h1         1 LYO       0.074700
     18 HOG         57.6890  -137.2150    40.9660 ho         1 LYO       0.381000
     19 HD1         58.3540  -139.2080    41.7680 hc         1 LYO       0.026700
     20 HD2         58.6360  -139.7810    40.1330 hc         1 LYO       0.026700
     21 HE1         59.8840  -141.1430    41.7380 h1         1 LYO       0.010200
     22 HE2         61.0380  -140.2720    40.7070 h1         1 LYO       0.010200
     23 HZ1         61.6650  -140.2290    42.9900 hn         1 LYO       0.361800
     24 HZ2         61.4040  -138.7310    42.4450 hn         1 LYO       0.361800
@<TRIPOS>BOND
     1     1     2 1   
     2     1    12 1   
     3     1    13 1   
     4     2     3 1   
     5     2     5 1   
     6     2    14 1   
     7     3     4 1   
     8     3    11 1   
     9     5     6 1   
    10     5    15 1   
    11     5    16 1   
    12     6     7 1   
    13     6     8 1   
    14     6    17 1   
    15     7    18 1   
    16     8     9 1   
    17     8    19 1   
    18     8    20 1   
    19     9    10 1   
    20     9    21 1   
    21     9    22 1   
    22    10    23 1   
    23    10    24 1   
@<TRIPOS>SUBSTRUCTURE
     1 LYO         1 TEMP              0 ****  ****    0 ROOT
