@<TRIPOS>MOLECULE
LYO
   24    23     1     0     0
SMALL
bcc


@<TRIPOS>ATOM
      1 N           61.3280  -136.2620    37.6820 n8         1 LYO      -0.888800
      2 CA          60.8340  -136.3940    39.0490 c3         1 LYO       0.025500
      3 C           61.9250  -135.9180    40.0430 c          1 LYO       0.933600
      4 O           62.7090  -135.0430    39.6270 o          1 LYO      -0.846300
      5 CB          60.3850  -137.8370    39.2890 c3         1 LYO      -0.037400
      6 CG          59.3130  -137.9960    40.3570 c3         1 LYO       0.137100
      7 OG          58.0840  -137.5740    39.7770 oh         1 LYO      -0.615800
      8 CD          59.1910  -139.4280    40.8800 c3         1 LYO      -0.097400
      9 CE          60.4390  -139.9650    41.5750 c3         1 LYO       0.167800
     10 NZ          60.8640  -139.0990    42.6660 n8         1 LYO      -0.913800
     11 OXT         61.9200  -136.4070    41.1940 o          1 LYO      -0.846300
     12 H           60.5440  -136.2550    37.0410 hn         1 LYO       0.325800
     13 H2          61.7820  -135.3620    37.5970 hn         1 LYO       0.325800
     14 HA          59.9650  -135.7370    39.2300 h1         1 LYO       0.006700
     15 HB1         59.9810  -138.2500    38.3570 hc         1 LYO       0.034700
     16 HB2         61.2560  -138.4490    39.5310 hc         1 LYO       0.034700
     17 HG          59.5600  -137.3410    41.1980 h1         1 LYO       0.074700
     18 HOG         57.4350  -137.4980    40.4830 ho         1 LYO       0.381000
     19 HD1         58.3550  -139.4660    41.5880 hc         1 LYO       0.026700
     20 HD2         58.9330  -140.0960    40.0510 hc         1 LYO       0.026700
     21 HE1         60.2010  -140.9490    41.9870 h1         1 LYO       0.010200
     22 HE2         61.2250  -140.1380    40.8260 h1         1 LYO       0.010200
     23 HZ1         61.6190  -139.5470    43.1690 hn         1 LYO       0.361800
     24 HZ2         61.2550  -138.2450    42.2790 hn         1 LYO       0.361800
@<TRIPOS>BOND
     1     1     2 1   
     2     1    12 1   
     3     1    13 1   
     4     2     3 1   
     5     2     5 1   
     6     2    14 1   
     7     3     4 1   
     8     3    11 1   
     9     5     6 1   
    10     5    15 1   
    11     5    16 1   
    12     6     7 1   
    13     6     8 1   
    14     6    17 1   
    15     7    18 1   
    16     8     9 1   
    17     8    19 1   
    18     8    20 1   
    19     9    10 1   
    20     9    21 1   
    21     9    22 1   
    22    10    23 1   
    23    10    24 1   
@<TRIPOS>SUBSTRUCTURE
     1 LYO         1 TEMP              0 ****  ****    0 ROOT
