@<TRIPOS>MOLECULE
LYP
   35    34     1     0     0
SMALL
No Charge or Current Charge


@<TRIPOS>ATOM
      1 N            3.5320     1.6300     0.9210 n8         1 LYP      -0.987200
      2 CA           3.3650     0.1510     0.6830 c3         1 LYP       0.020500
      3 CB           2.1070    -0.1100    -0.1900 c3         1 LYP      -0.100400
      4 CG           0.7680     0.3120     0.4640 c3         1 LYP      -0.078400
      5 CD          -0.4630    -0.0320    -0.4050 c3         1 LYP      -0.077400
      6 CE          -1.7990     0.3920     0.2520 c3         1 LYP       0.167800
      7 NZ          -3.0260    -0.0640    -0.4530 n3         1 LYP      -0.719600
      8 CM          -3.1510     0.4930    -1.8260 c3         1 LYP       0.153100
      9 C            4.6260    -0.6190     0.1010 c          1 LYP       0.724000
     10 O            5.0980    -0.2500    -0.9680 o          1 LYP      -0.733000
     11 CCA         -6.7030    -0.4210     0.8490 c3         1 LYP      -0.089100
     12 CCC         -5.5270    -0.5290    -0.1420 c3         1 LYP      -0.078400
     13 CCD         -4.2390     0.1540     0.3790 c3         1 LYP       0.171800
     14 OXT          5.1250    -1.5110     0.7770 o          1 LYP      -0.733000
     15 HN1          3.7970     2.0750     0.0340 hn         1 LYP       0.373500
     16 HN2          2.6160     2.0360     1.1380 hn         1 LYP       0.373500
     17 HA           3.1660    -0.3010     1.6650 h1         1 LYP       0.042700
     18 HBC1         2.2200     0.3960    -1.1570 hc         1 LYP       0.044200
     19 HBC2         2.0590    -1.1850    -0.4080 hc         1 LYP       0.044200
     20 HGC1         0.6700    -0.1870     1.4370 hc         1 LYP       0.024700
     21 HGC2         0.7730     1.3920     0.6560 hc         1 LYP       0.024700
     22 HDC1        -0.3530     0.4630    -1.3760 hc         1 LYP       0.043200
     23 HDC2        -0.4830    -1.1130    -0.5900 hc         1 LYP       0.043200
     24 HEC1        -1.8020    -0.0180     1.2720 h1         1 LYP       0.024700
     25 HEC2        -1.8100     1.4860     0.3510 h1         1 LYP       0.024700
     26 HMC1        -2.2750     0.2460    -2.4380 h1         1 LYP       0.025367
     27 HMC2        -4.0230     0.0780    -2.3470 h1         1 LYP       0.025367
     28 HMC3        -3.2550     1.5860    -1.7960 h1         1 LYP       0.025367
     29 HCD1        -4.0520    -0.2360     1.3890 h1         1 LYP       0.024200
     30 HCD2        -4.4300     1.2310     0.4850 h1         1 LYP       0.024200
     31 HCA1        -6.9510     0.6290     1.0430 hc         1 LYP       0.027700
     32 HCA2        -7.5930    -0.9140     0.4400 hc         1 LYP       0.027700
     33 HCA3        -6.4520    -0.9010     1.8020 hc         1 LYP       0.027700
     34 HCC1        -5.3200    -1.5880    -0.3360 hc         1 LYP       0.044200
     35 HCC2        -5.8340    -0.0770    -1.0920 hc         1 LYP       0.044200
@<TRIPOS>BOND
     1     1     2 1   
     2     1    15 1   
     3     1    16 1   
     4     2     3 1   
     5     2     9 1   
     6     2    17 1   
     7     3     4 1   
     8     3    18 1   
     9     3    19 1   
    10     4     5 1   
    11     4    20 1   
    12     4    21 1   
    13     5     6 1   
    14     5    22 1   
    15     5    23 1   
    16     6     7 1   
    17     6    24 1   
    18     6    25 1   
    19     7     8 1   
    20     7    13 1   
    21     8    26 1   
    22     8    27 1   
    23     8    28 1   
    24     9    10 1   
    25     9    14 1   
    26    11    12 1   
    27    11    31 1   
    28    11    32 1   
    29    11    33 1   
    30    12    13 1   
    31    12    34 1   
    32    12    35 1   
    33    13    29 1   
    34    13    30 1   
@<TRIPOS>SUBSTRUCTURE
     1 LYP         1 TEMP              0 ****  ****    0 ROOT
