@<TRIPOS>MOLECULE
LYP
   35    34     1     0     0
SMALL
abcg2


@<TRIPOS>ATOM
      1 N            3.5690     1.6450     0.5240 n8         1 LYP      -0.987200
      2 CA           3.2790     0.2270     0.6700 c3         1 LYP       0.020500
      3 CB           2.0070    -0.2500    -0.0520 c3         1 LYP      -0.100400
      4 CG           0.7190     0.3790     0.4650 c3         1 LYP      -0.078400
      5 CD          -0.5140    -0.1140    -0.2830 c3         1 LYP      -0.077400
      6 CE          -1.8050     0.4610     0.2850 c3         1 LYP       0.167800
      7 NZ          -2.9910     0.0380    -0.4440 n3         1 LYP      -0.719600
      8 CM          -3.1350     0.7730    -1.6830 c3         1 LYP       0.153100
      9 C            4.4650    -0.6240     0.1690 c          1 LYP       0.724000
     10 O            5.2080    -0.1170    -0.6950 o          1 LYP      -0.733000
     11 CCA         -6.5640    -0.6150     0.7550 c3         1 LYP      -0.089100
     12 CCC         -5.4030    -0.5650    -0.2300 c3         1 LYP      -0.078400
     13 CCD         -4.1880     0.1280     0.3750 c3         1 LYP       0.171800
     14 OXT          4.5520    -1.7780     0.6370 o          1 LYP      -0.733000
     15 HN1          3.8640     1.8130    -0.4300 hn         1 LYP       0.373500
     16 HN2          2.7310     2.1940     0.6700 hn         1 LYP       0.373500
     17 HA           3.1440     0.0180     1.7380 h1         1 LYP       0.042700
     18 HBC1         2.1100    -0.0460    -1.1250 hc         1 LYP       0.044200
     19 HBC2         1.9320    -1.3370     0.0510 hc         1 LYP       0.044200
     20 HGC1         0.6160     0.1600     1.5340 hc         1 LYP       0.024700
     21 HGC2         0.7680     1.4700     0.3810 hc         1 LYP       0.024700
     22 HDC1        -0.4070     0.1430    -1.3410 hc         1 LYP       0.043200
     23 HDC2        -0.5650    -1.2060    -0.2350 hc         1 LYP       0.043200
     24 HEC1        -1.9010     0.1190     1.3190 h1         1 LYP       0.024700
     25 HEC2        -1.7320     1.5620     0.3360 h1         1 LYP       0.024700
     26 HMC1        -2.2310     0.6930    -2.2870 h1         1 LYP       0.025367
     27 HMC2        -3.9510     0.3720    -2.2840 h1         1 LYP       0.025367
     28 HMC3        -3.3340     1.8450    -1.5220 h1         1 LYP       0.025367
     29 HCD1        -3.9700    -0.3520     1.3340 h1         1 LYP       0.024200
     30 HCD2        -4.4480     1.1770     0.6080 h1         1 LYP       0.024200
     31 HCA1        -6.8790     0.3880     1.0500 hc         1 LYP       0.027700
     32 HCA2        -7.4300    -1.1180     0.3240 hc         1 LYP       0.027700
     33 HCA3        -6.2880    -1.1540     1.6630 hc         1 LYP       0.027700
     34 HCC1        -5.1190    -1.5790    -0.5240 hc         1 LYP       0.044200
     35 HCC2        -5.7270    -0.0550    -1.1400 hc         1 LYP       0.044200
@<TRIPOS>BOND
     1     1     2 1   
     2     1    15 1   
     3     1    16 1   
     4     2     3 1   
     5     2     9 1   
     6     2    17 1   
     7     3     4 1   
     8     3    18 1   
     9     3    19 1   
    10     4     5 1   
    11     4    20 1   
    12     4    21 1   
    13     5     6 1   
    14     5    22 1   
    15     5    23 1   
    16     6     7 1   
    17     6    24 1   
    18     6    25 1   
    19     7     8 1   
    20     7    13 1   
    21     8    26 1   
    22     8    27 1   
    23     8    28 1   
    24     9    10 1   
    25     9    14 1   
    26    11    12 1   
    27    11    31 1   
    28    11    32 1   
    29    11    33 1   
    30    12    13 1   
    31    12    34 1   
    32    12    35 1   
    33    13    29 1   
    34    13    30 1   
@<TRIPOS>SUBSTRUCTURE
     1 LYP         1 TEMP              0 ****  ****    0 ROOT
