@<TRIPOS>MOLECULE
LYQ
   44    47     1     0     0
SMALL
abcg2


@<TRIPOS>ATOM
      1 C4          -2.4180     8.1660    11.4390 ca         1 LYQ      -0.065000
      2 C5          -2.2820     7.4830    12.6510 ca         1 LYQ      -0.132300
      3 C6          -3.1950     6.2880    12.8480 c6         1 LYQ       0.310800
      4 N1          -5.3390    -0.1160    15.9190 n8         1 LYQ      -0.998100
      5 C7          -4.5390     6.6860    13.4550 c5         1 LYQ      -0.075700
      6 C8          -5.4530     5.4800    13.6870 c5         1 LYQ      -0.006400
      7 C9          -6.6010     6.1160    14.4750 c5         1 LYQ      -0.074400
      8 C10         -5.9280     7.1460    15.4020 c5         1 LYQ      -0.076400
      9 C11         -4.5180     7.3780    14.8210 c5         1 LYQ      -0.072400
     10 C12         -4.7050     4.4030    14.4400 ca         1 LYQ      -0.181300
     11 C13         -3.2990     4.3270    14.3330 ca         1 LYQ       0.406000
     12 C14         -2.6090     3.2940    15.0000 ca         1 LYQ      -0.228000
     13 C15         -3.2830     2.3630    15.7520 ca         1 LYQ       0.052000
     14 O2          -6.9210     1.6780    16.9290 o          1 LYQ      -0.553500
     15 O1          -4.8010     1.0040    18.0620 o          1 LYQ      -0.553500
     16 C16         -4.6710     2.4400    15.8540 ca         1 LYQ      -0.356500
     17 N           -2.5950     5.2270    13.6120 nu         1 LYQ      -0.957200
     18 C17         -5.3630     3.4540    15.2020 ca         1 LYQ       0.040000
     19 C           -1.3550     8.0130    13.5440 ca         1 LYQ       0.180000
     20 CL          -1.0330     7.3050    15.1000 cl         1 LYQ      -0.192000
     21 C3          -1.7030     9.3030    11.1220 ca         1 LYQ      -0.143000
     22 C2          -0.7820     9.8040    12.0370 ca         1 LYQ       0.159100
     23 O           -0.0880    10.9060    11.7060 oh         1 LYQ      -0.526100
     24 C1          -0.6100     9.1490    13.2490 ca         1 LYQ      -0.211000
     25 H1          -3.1210     7.7800    10.7100 ha         1 LYQ       0.118000
     26 H2          -3.4170     5.9200    11.8370 h1         1 LYQ       0.043700
     27 H3          -5.5880    -0.9440    16.4540 hn         1 LYQ       0.466000
     28 H4          -5.8770    -0.0880    15.0590 hn         1 LYQ       0.466000
     29 H5          -5.0280     7.3460    12.7310 hc         1 LYQ       0.057700
     30 H6          -5.8090     5.0690    12.7360 hc         1 LYQ       0.057700
     31 H7          -7.2630     6.6180    13.7660 hc         1 LYQ       0.047200
     32 H8          -7.2150     5.3980    15.0180 hc         1 LYQ       0.047200
     33 H9          -6.5070     8.0690    15.4420 hc         1 LYQ       0.045700
     34 H10         -5.8670     6.7750    16.4250 hc         1 LYQ       0.045700
     35 H11         -3.7680     6.9220    15.4660 hc         1 LYQ       0.052700
     36 H12         -4.2620     8.4340    14.7370 hc         1 LYQ       0.052700
     37 H13         -1.5300     3.2400    14.9190 ha         1 LYQ       0.116000
     38 H14         -2.7280     1.5810    16.2540 ha         1 LYQ       0.131000
     39 H15         -1.6220     5.0290    13.4490 hn         1 LYQ       0.497000
     40 H16         -6.4420     3.5000    15.2810 ha         1 LYQ       0.132000
     41 H17         -1.8460     9.7910    10.1670 ha         1 LYQ       0.137000
     42 H18          0.5340    11.1410    12.4040 ho         1 LYQ       0.472000
     43 H19          0.1040     9.5220    13.9740 ha         1 LYQ       0.132000
     44 S           -5.5260     1.2610    16.8230 sy         1 LYQ       1.135600
@<TRIPOS>BOND
     1     1     2 ar  
     2     1    21 ar  
     3     1    25 1   
     4     2     3 1   
     5     2    19 ar  
     6     3     5 1   
     7     3    17 1   
     8     3    26 1   
     9     4    27 1   
    10     4    28 1   
    11     4    44 1   
    12     5     6 1   
    13     5     9 1   
    14     5    29 1   
    15     6     7 1   
    16     6    10 1   
    17     6    30 1   
    18     7     8 1   
    19     7    31 1   
    20     7    32 1   
    21     8     9 1   
    22     8    33 1   
    23     8    34 1   
    24     9    35 1   
    25     9    36 1   
    26    10    11 ar  
    27    10    18 ar  
    28    11    12 ar  
    29    11    17 1   
    30    12    13 ar  
    31    12    37 1   
    32    13    16 ar  
    33    13    38 1   
    34    14    44 2   
    35    15    44 2   
    36    16    18 ar  
    37    16    44 1   
    38    17    39 1   
    39    18    40 1   
    40    19    20 1   
    41    19    24 ar  
    42    21    22 ar  
    43    21    41 1   
    44    22    23 1   
    45    22    24 ar  
    46    23    42 1   
    47    24    43 1   
@<TRIPOS>SUBSTRUCTURE
     1 LYQ         1 TEMP              0 ****  ****    0 ROOT
