@<TRIPOS>MOLECULE
LYQ
   44    47     1     0     0
SMALL
No Charge or Current Charge


@<TRIPOS>ATOM
      1 C4          -2.4580     8.1800    11.3360 ca         1 LYQ      -0.065000
      2 C5          -2.2870     7.5290    12.5780 ca         1 LYQ      -0.132300
      3 C6          -3.1780     6.2930    12.8300 c6         1 LYQ       0.310800
      4 N1          -5.5740    -0.0500    15.8790 n8         1 LYQ      -0.998100
      5 C7          -4.5550     6.6450    13.4520 c5         1 LYQ      -0.075700
      6 C8          -5.4700     5.4010    13.6320 c5         1 LYQ      -0.006400
      7 C9          -6.6340     6.0440    14.4460 c5         1 LYQ      -0.074400
      8 C10         -5.9050     6.8880    15.5290 c5         1 LYQ      -0.076400
      9 C11         -4.5480     7.3000    14.8760 c5         1 LYQ      -0.072400
     10 C12         -4.6800     4.3470    14.4450 ca         1 LYQ      -0.181300
     11 C13         -3.2660     4.3070    14.3850 ca         1 LYQ       0.406000
     12 C14         -2.5440     3.3590    15.1180 ca         1 LYQ      -0.228000
     13 C15         -3.2110     2.4120    15.9060 ca         1 LYQ       0.052000
     14 O2          -6.8580     1.5930    17.1390 o          1 LYQ      -0.553500
     15 O1          -4.6090     0.7070    18.0140 o          1 LYQ      -0.553500
     16 C16         -4.6160     2.4120    15.9480 ca         1 LYQ      -0.356500
     17 N           -2.5550     5.2180    13.6060 nu         1 LYQ      -0.957200
     18 C17         -5.3460     3.3700    15.2160 ca         1 LYQ       0.040000
     19 C           -1.3360     8.0650    13.4940 ca         1 LYQ       0.180000
     20 Cl          -1.0000     7.3770    15.0860 cl         1 LYQ      -0.192000
     21 C3          -1.7100     9.3210    11.0060 ca         1 LYQ      -0.143000
     22 C2          -0.7790     9.8350    11.9130 ca         1 LYQ       0.159100
     23 O           -0.0570    10.9440    11.5870 oh         1 LYQ      -0.526100
     24 C1          -0.5930     9.2090    13.1510 ca         1 LYQ      -0.211000
     25 H1          -3.1810     7.8000    10.6160 ha         1 LYQ       0.118000
     26 H2          -3.4050     5.8650    11.8410 h1         1 LYQ       0.043700
     27 H3          -6.5740    -0.2330    15.8970 hn         1 LYQ       0.466000
     28 H4          -5.4250     0.4170    14.9880 hn         1 LYQ       0.466000
     29 H5          -5.0170     7.3360    12.7360 hc         1 LYQ       0.057700
     30 H6          -5.8130     4.9960    12.6730 hc         1 LYQ       0.057700
     31 H7          -7.2330     6.6950    13.7980 hc         1 LYQ       0.047200
     32 H8          -7.3350     5.3230    14.8750 hc         1 LYQ       0.047200
     33 H9          -6.4990     7.7580    15.8310 hc         1 LYQ       0.045700
     34 H10         -5.7320     6.2950    16.4350 hc         1 LYQ       0.045700
     35 H11         -3.7240     6.9310    15.4940 hc         1 LYQ       0.052700
     36 H12         -4.4310     8.3880    14.8170 hc         1 LYQ       0.052700
     37 H13         -1.4590     3.3480    15.0750 ha         1 LYQ       0.116000
     38 H14         -2.6350     1.6770    16.4670 ha         1 LYQ       0.131000
     39 H15         -1.5480     5.2490    13.7550 hn         1 LYQ       0.497000
     40 H16         -6.4330     3.3490    15.2440 ha         1 LYQ       0.132000
     41 H17         -1.8570     9.8080    10.0450 ha         1 LYQ       0.137000
     42 H18          0.5410    11.1580    12.3350 ho         1 LYQ       0.472000
     43 H19          0.1290     9.6040    13.8610 ha         1 LYQ       0.132000
     44 S           -5.4690     1.1900    16.9340 sy         1 LYQ       1.135600
@<TRIPOS>BOND
     1     1     2 ar  
     2     1    21 ar  
     3     1    25 1   
     4     2     3 1   
     5     2    19 ar  
     6     3     5 1   
     7     3    17 1   
     8     3    26 1   
     9     4    27 1   
    10     4    28 1   
    11     4    44 1   
    12     5     6 1   
    13     5     9 1   
    14     5    29 1   
    15     6     7 1   
    16     6    10 1   
    17     6    30 1   
    18     7     8 1   
    19     7    31 1   
    20     7    32 1   
    21     8     9 1   
    22     8    33 1   
    23     8    34 1   
    24     9    35 1   
    25     9    36 1   
    26    10    11 ar  
    27    10    18 ar  
    28    11    12 ar  
    29    11    17 1   
    30    12    13 ar  
    31    12    37 1   
    32    13    16 ar  
    33    13    38 1   
    34    14    44 2   
    35    15    44 2   
    36    16    18 ar  
    37    16    44 1   
    38    17    39 1   
    39    18    40 1   
    40    19    20 1   
    41    19    24 ar  
    42    21    22 ar  
    43    21    41 1   
    44    22    23 1   
    45    22    24 ar  
    46    23    42 1   
    47    24    43 1   
@<TRIPOS>SUBSTRUCTURE
     1 LYQ         1 TEMP              0 ****  ****    0 ROOT
