@<TRIPOS>MOLECULE
LYR
   71    71     1     0     0
SMALL
No Charge or Current Charge


@<TRIPOS>ATOM
      1 N           -4.7010    -6.6630     6.1070 n8         1 LYR      -0.297000
      2 CA          -4.9790    -5.6770     7.1560 c3         1 LYR      -0.114000
      3 C           -4.0540    -5.9050     8.2740 c1         1 LYR      -0.128000
      4 O           -3.2280    -6.1130     9.2750 os         1 LYR      -0.034000
      5 OXT         -2.5890    -4.8760     9.8380 o          1 LYR      -0.651000
      6 CB          -6.4600    -5.7290     7.6070 c3         1 LYR      -0.137000
      7 CG          -7.4690    -5.3570     6.4920 c3         1 LYR      -0.157000
      8 CD          -8.9350    -5.3510     6.9860 c3         1 LYR      -0.149000
      9 CE         -10.0040    -5.1490     5.8840 c3         1 LYR      -0.058000
     10 NZ          -9.9390    -3.8080     5.2760 n7         1 LYR      -0.304000
     11 C1          -9.2110    -3.7140     3.9990 c3         1 LYR      -0.033000
     12 C2          -9.1830    -2.2750     3.5080 c2         1 LYR      -0.160000
     13 C3          -8.6110    -1.7990     2.3770 c2         1 LYR      -0.058000
     14 C4          -7.9000    -2.7700     1.4390 c3         1 LYR      -0.177000
     15 C5          -8.7210    -0.4610     2.1470 c2         1 LYR      -0.139000
     16 C6          -8.2830     0.3500     1.1510 c2         1 LYR      -0.106000
     17 C7          -7.5500     0.0710     0.0460 c2         1 LYR      -0.152000
     18 C80         -7.1550     0.9480    -0.9180 c2         1 LYR      -0.044000
     19 C8          -7.6000     2.4160    -0.8910 c3         1 LYR      -0.177000
     20 C9          -6.3820     0.4610    -1.9280 c2         1 LYR      -0.156000
     21 C10         -5.8200     1.1640    -2.9440 c2         1 LYR      -0.089000
     22 C11         -5.0520     0.7010    -4.0040 c2         1 LYR      -0.088000
     23 C12         -4.8670    -0.6160    -4.3480 c2         1 LYR      -0.054000
     24 C13         -5.6830    -1.8280    -3.9080 c3         1 LYR      -0.180000
     25 C14         -3.8510    -1.0550    -5.4370 c6         1 LYR      -0.115000
     26 C15         -2.8620     0.0340    -5.9430 c6         1 LYR      -0.161000
     27 C16         -3.6810     1.3060    -6.1660 c6         1 LYR      -0.138000
     28 C17         -4.3460     1.8220    -4.8500 c6         1 LYR       0.006000
     29 C18         -3.2680     2.5080    -3.9530 c3         1 LYR      -0.204000
     30 C19         -5.3610     2.9300    -5.2910 c3         1 LYR      -0.204000
     31 H           -3.7430    -6.5520     5.7750 hn         1 LYR       0.107000
     32 H2          -5.3040    -6.4870     5.3030 hn         1 LYR       0.107000
     33 HA          -4.7710    -4.6840     6.7380 h1         1 LYR       0.021000
     34 HB2         -6.6000    -5.0370     8.4470 hc         1 LYR       0.087000
     35 HB3         -6.6930    -6.7320     7.9890 hc         1 LYR       0.087000
     36 HG2         -7.3750    -6.0620     5.6570 hc         1 LYR       0.073000
     37 HG3         -7.2110    -4.3630     6.1070 hc         1 LYR       0.073000
     38 HD2         -9.0580    -4.5740     7.7520 hc         1 LYR       0.078500
     39 HD3         -9.1420    -6.3080     7.4830 hc         1 LYR       0.078500
     40 HE2        -10.9870    -5.2700     6.3580 h1         1 LYR       0.055000
     41 HE3         -9.9180    -5.9350     5.1220 h1         1 LYR       0.055000
     42 HZ         -10.8940    -3.4890     5.1080 hn         1 LYR       0.141000
     43 H1          -8.1820    -4.0760     4.1120 h1         1 LYR       0.070000
     44 H11         -9.7030    -4.3440     3.2470 h1         1 LYR       0.070000
     45 HC2         -9.6960    -1.5910     4.1860 ha         1 LYR       0.111000
     46 H41         -8.3410    -2.7450     0.4360 hc         1 LYR       0.082333
     47 H42         -7.9580    -3.8150     1.7600 hc         1 LYR       0.082333
     48 H43         -6.8300    -2.5390     1.3680 hc         1 LYR       0.082333
     49 H5          -9.2740     0.0930     2.9070 ha         1 LYR       0.109000
     50 H6          -8.5720     1.3860     1.3060 ha         1 LYR       0.108000
     51 H7          -7.2200    -0.9480    -0.0890 ha         1 LYR       0.138000
     52 H81         -6.8690     3.0430    -0.3660 hc         1 LYR       0.074333
     53 H82         -8.5750     2.5620    -0.4160 hc         1 LYR       0.074333
     54 H83         -7.7450     2.8300    -1.8950 hc         1 LYR       0.074333
     55 H9          -6.1540    -0.5930    -1.8670 ha         1 LYR       0.148000
     56 H10         -5.9550     2.2530    -2.8210 ha         1 LYR       0.105000
     57 H131        -5.7640    -2.5720    -4.7100 hc         1 LYR       0.076333
     58 H132        -6.7190    -1.5680    -3.6650 hc         1 LYR       0.076333
     59 H133        -5.2220    -2.3340    -3.0510 hc         1 LYR       0.076333
     60 H141        -4.4110    -1.4420    -6.3000 hc         1 LYR       0.083000
     61 H142        -3.2640    -1.9050    -5.0610 hc         1 LYR       0.083000
     62 H151        -2.3760    -0.2890    -6.8740 hc         1 LYR       0.105500
     63 H152        -2.0620     0.2020    -5.2090 hc         1 LYR       0.105500
     64 H161        -4.4560     1.0980    -6.9170 hc         1 LYR       0.061000
     65 H162        -3.0420     2.0850    -6.6040 hc         1 LYR       0.061000
     66 H181        -2.5460     1.7800    -3.5640 hc         1 LYR       0.073167
     67 H182        -3.7130     3.0080    -3.0850 hc         1 LYR       0.073167
     68 H183        -2.7050     3.2680    -4.5070 hc         1 LYR       0.073167
     69 H191        -4.9150     3.6070    -6.0300 hc         1 LYR       0.073167
     70 H192        -5.6990     3.5670    -4.4680 hc         1 LYR       0.073167
     71 H193        -6.2490     2.4830    -5.7530 hc         1 LYR       0.073167
@<TRIPOS>BOND
     1     1     2 1   
     2     1    31 1   
     3     1    32 1   
     4     2     3 1   
     5     2     6 1   
     6     2    33 1   
     7     3     4 1   
     8     4     5 1   
     9     6     7 1   
    10     6    34 1   
    11     6    35 1   
    12     7     8 1   
    13     7    36 1   
    14     7    37 1   
    15     8     9 1   
    16     8    38 1   
    17     8    39 1   
    18     9    10 1   
    19     9    40 1   
    20     9    41 1   
    21    10    11 1   
    22    10    42 1   
    23    11    12 1   
    24    11    43 1   
    25    11    44 1   
    26    12    13 1   
    27    12    45 1   
    28    13    14 1   
    29    13    15 1   
    30    14    46 1   
    31    14    47 1   
    32    14    48 1   
    33    15    16 1   
    34    15    49 1   
    35    16    17 1   
    36    16    50 1   
    37    17    18 1   
    38    17    51 1   
    39    18    19 1   
    40    18    20 1   
    41    19    52 1   
    42    19    53 1   
    43    19    54 1   
    44    20    21 1   
    45    20    55 1   
    46    21    22 1   
    47    21    56 1   
    48    22    23 1   
    49    22    28 1   
    50    23    24 1   
    51    23    25 1   
    52    24    57 1   
    53    24    58 1   
    54    24    59 1   
    55    25    26 1   
    56    25    60 1   
    57    25    61 1   
    58    26    27 1   
    59    26    62 1   
    60    26    63 1   
    61    27    28 1   
    62    27    64 1   
    63    27    65 1   
    64    28    29 1   
    65    28    30 1   
    66    29    66 1   
    67    29    67 1   
    68    29    68 1   
    69    30    69 1   
    70    30    70 1   
    71    30    71 1   
@<TRIPOS>SUBSTRUCTURE
     1 LYR         1 TEMP              0 ****  ****    0 ROOT
