@<TRIPOS>MOLECULE
LYR
   71    71     1     0     0
SMALL
bcc


@<TRIPOS>ATOM
      1 N           -6.0380    -4.7680     1.3860 n8         1 LYR      -0.297000
      2 CA          -5.4820    -3.5230     1.9090 c3         1 LYR      -0.114000
      3 C           -4.0480    -3.4180     1.4160 c1         1 LYR      -0.128000
      4 O           -3.7480    -2.1900     1.3520 os         1 LYR      -0.034000
      5 OXT         -2.4240    -1.8720     1.0020 o          1 LYR      -0.651000
      6 CB          -5.4410    -3.5600     3.4420 c3         1 LYR      -0.137000
      7 CG          -6.8090    -3.7340     4.0900 c3         1 LYR      -0.157000
      8 CD          -6.7570    -3.6750     5.6110 c3         1 LYR      -0.149000
      9 CE          -8.1010    -3.9000     6.3000 c3         1 LYR      -0.058000
     10 NZ          -9.1090    -2.9270     5.9040 n7         1 LYR      -0.304000
     11 C1         -10.0260    -3.3520     4.8480 c3         1 LYR      -0.033000
     12 C2         -10.4130    -2.1730     4.0090 c2         1 LYR      -0.160000
     13 C3         -10.2290    -2.0190     2.6890 c2         1 LYR      -0.058000
     14 C4          -9.7140    -3.1220     1.7980 c3         1 LYR      -0.177000
     15 C5         -10.5840    -0.7240     2.0900 c2         1 LYR      -0.139000
     16 C6          -9.9590    -0.0660     1.0940 c2         1 LYR      -0.106000
     17 C7          -8.7040    -0.4340     0.4830 c2         1 LYR      -0.152000
     18 C80         -8.0840     0.1730    -0.5560 c2         1 LYR      -0.044000
     19 C8          -8.6590     1.3200    -1.3290 c3         1 LYR      -0.177000
     20 C9          -6.7760    -0.3320    -0.9430 c2         1 LYR      -0.156000
     21 C10         -6.0160     0.1260    -1.9510 c2         1 LYR      -0.089000
     22 C11         -4.6980    -0.4170    -2.3080 c2         1 LYR      -0.088000
     23 C12         -4.4900    -1.7370    -2.4740 c2         1 LYR      -0.054000
     24 C13         -5.5650    -2.7860    -2.4400 c3         1 LYR      -0.180000
     25 C14         -3.1320    -2.3220    -2.7520 c6         1 LYR      -0.115000
     26 C15         -1.9860    -1.3570    -2.5110 c6         1 LYR      -0.161000
     27 C16         -2.3380    -0.0020    -3.0950 c6         1 LYR      -0.138000
     28 C17         -3.5790     0.6170    -2.4430 c6         1 LYR       0.006000
     29 C18         -3.2360     1.1560    -1.0460 c3         1 LYR      -0.204000
     30 C19         -4.0190     1.7950    -3.3240 c3         1 LYR      -0.204000
     31 H           -5.8810    -4.8110     0.3870 hn         1 LYR       0.107000
     32 H2          -7.0430    -4.7760     1.5040 hn         1 LYR       0.107000
     33 HA          -6.0800    -2.6390     1.6150 h1         1 LYR       0.021000
     34 HB2         -4.9960    -2.6260     3.7990 hc         1 LYR       0.087000
     35 HB3         -4.7730    -4.3670     3.7620 hc         1 LYR       0.087000
     36 HG2         -7.2510    -4.6880     3.7830 hc         1 LYR       0.073000
     37 HG3         -7.4760    -2.9480     3.7200 hc         1 LYR       0.073000
     38 HD2         -6.3600    -2.7020     5.9190 hc         1 LYR       0.078500
     39 HD3         -6.0530    -4.4280     5.9800 hc         1 LYR       0.078500
     40 HE2         -7.9490    -3.8160     7.3780 h1         1 LYR       0.055000
     41 HE3         -8.4340    -4.9330     6.1220 h1         1 LYR       0.055000
     42 HZ          -9.6450    -2.6410     6.7100 hn         1 LYR       0.141000
     43 H1          -9.5380    -4.1110     4.2390 h1         1 LYR       0.070000
     44 H11        -10.9260    -3.8310     5.2590 h1         1 LYR       0.070000
     45 HC2        -10.8380    -1.3380     4.5620 ha         1 LYR       0.111000
     46 H41        -10.1070    -3.0170     0.7870 hc         1 LYR       0.082333
     47 H42        -10.0090    -4.1050     2.1630 hc         1 LYR       0.082333
     48 H43         -8.6270    -3.1250     1.7160 hc         1 LYR       0.082333
     49 H5         -11.4460    -0.2310     2.5290 ha         1 LYR       0.109000
     50 H6         -10.4140     0.8670     0.7790 ha         1 LYR       0.108000
     51 H7          -8.1650    -1.2570     0.9410 ha         1 LYR       0.138000
     52 H81         -7.9980     2.1890    -1.2880 hc         1 LYR       0.074333
     53 H82         -9.6360     1.6290    -0.9670 hc         1 LYR       0.074333
     54 H83         -8.7680     1.0600    -2.3840 hc         1 LYR       0.074333
     55 H9          -6.3900    -1.1490    -0.3410 ha         1 LYR       0.148000
     56 H10         -6.3690     0.9800    -2.5210 ha         1 LYR       0.105000
     57 H131        -5.4070    -3.4980    -3.2540 hc         1 LYR       0.076333
     58 H132        -6.5720    -2.3850    -2.5260 hc         1 LYR       0.076333
     59 H133        -5.5170    -3.3680    -1.5140 hc         1 LYR       0.076333
     60 H141        -3.1170    -2.6870    -3.7870 hc         1 LYR       0.083000
     61 H142        -3.0100    -3.2170    -2.1320 hc         1 LYR       0.083000
     62 H151        -1.0690    -1.7410    -2.9620 hc         1 LYR       0.105500
     63 H152        -1.8060    -1.2820    -1.4380 hc         1 LYR       0.105500
     64 H161        -2.5190    -0.1160    -4.1700 hc         1 LYR       0.061000
     65 H162        -1.5030     0.6980    -2.9960 hc         1 LYR       0.061000
     66 H181        -2.9300     0.3600    -0.3650 hc         1 LYR       0.073167
     67 H182        -4.0970     1.6570    -0.6000 hc         1 LYR       0.073167
     68 H183        -2.4250     1.8860    -1.1070 hc         1 LYR       0.073167
     69 H191        -3.1680     2.4550    -3.5060 hc         1 LYR       0.073167
     70 H192        -4.7980     2.4010    -2.8600 hc         1 LYR       0.073167
     71 H193        -4.3870     1.4540    -4.2940 hc         1 LYR       0.073167
@<TRIPOS>BOND
     1     1     2 1   
     2     1    31 1   
     3     1    32 1   
     4     2     3 1   
     5     2     6 1   
     6     2    33 1   
     7     3     4 1   
     8     4     5 1   
     9     6     7 1   
    10     6    34 1   
    11     6    35 1   
    12     7     8 1   
    13     7    36 1   
    14     7    37 1   
    15     8     9 1   
    16     8    38 1   
    17     8    39 1   
    18     9    10 1   
    19     9    40 1   
    20     9    41 1   
    21    10    11 1   
    22    10    42 1   
    23    11    12 1   
    24    11    43 1   
    25    11    44 1   
    26    12    13 1   
    27    12    45 1   
    28    13    14 1   
    29    13    15 1   
    30    14    46 1   
    31    14    47 1   
    32    14    48 1   
    33    15    16 1   
    34    15    49 1   
    35    16    17 1   
    36    16    50 1   
    37    17    18 1   
    38    17    51 1   
    39    18    19 1   
    40    18    20 1   
    41    19    52 1   
    42    19    53 1   
    43    19    54 1   
    44    20    21 1   
    45    20    55 1   
    46    21    22 1   
    47    21    56 1   
    48    22    23 1   
    49    22    28 1   
    50    23    24 1   
    51    23    25 1   
    52    24    57 1   
    53    24    58 1   
    54    24    59 1   
    55    25    26 1   
    56    25    60 1   
    57    25    61 1   
    58    26    27 1   
    59    26    62 1   
    60    26    63 1   
    61    27    28 1   
    62    27    64 1   
    63    27    65 1   
    64    28    29 1   
    65    28    30 1   
    66    29    66 1   
    67    29    67 1   
    68    29    68 1   
    69    30    69 1   
    70    30    70 1   
    71    30    71 1   
@<TRIPOS>SUBSTRUCTURE
     1 LYR         1 TEMP              0 ****  ****    0 ROOT
