@<TRIPOS>MOLECULE
LYT
   16    15     1     0     0
SMALL
No Charge or Current Charge


@<TRIPOS>ATOM
      1 C1           0.5300    -0.0080    -1.2510 c3         1 LYT       0.148800
      2 N           -0.3160     0.0550    -2.4570 n8         1 LYT      -0.996200
      3 C2          -0.3170     0.0330     0.0380 c3         1 LYT      -0.079400
      4 C3           0.5410    -0.0290     1.3210 c3         1 LYT      -0.075400
      5 C4          -0.2980     0.0120     2.6130 c3         1 LYT      -0.088100
      6 H11          1.2250     0.8430    -1.2650 h1         1 LYT       0.025200
      7 H12          1.1150    -0.9380    -1.2810 h1         1 LYT       0.025200
      8 HN1          0.2800    -0.0390    -3.2890 hn         1 LYT       0.390500
      9 HN2         -0.9100    -0.7820    -2.4920 hn         1 LYT       0.390500
     10 H21         -1.0220    -0.8080     0.0360 hc         1 LYT       0.045200
     11 H22         -0.9130     0.9540     0.0490 hc         1 LYT       0.045200
     12 H31          1.2470     0.8110     1.3270 hc         1 LYT       0.035200
     13 H32          1.1390    -0.9490     1.3130 hc         1 LYT       0.035200
     14 H41          0.3540    -0.0340     3.4930 hc         1 LYT       0.032033
     15 H42         -0.8820     0.9390     2.6670 hc         1 LYT       0.032033
     16 H43         -0.9900    -0.8370     2.6530 hc         1 LYT       0.032033
@<TRIPOS>BOND
     1     1     2 1   
     2     1     3 1   
     3     1     6 1   
     4     1     7 1   
     5     2     8 1   
     6     2     9 1   
     7     3     4 1   
     8     3    10 1   
     9     3    11 1   
    10     4     5 1   
    11     4    12 1   
    12     4    13 1   
    13     5    14 1   
    14     5    15 1   
    15     5    16 1   
@<TRIPOS>SUBSTRUCTURE
     1 LYT         1 TEMP              0 ****  ****    0 ROOT
