@<TRIPOS>MOLECULE
LYT
   16    15     1     0     0
SMALL
bcc


@<TRIPOS>ATOM
      1 C1           0.5200    -0.0240    -1.2360 c3         1 LYT       0.148800
      2 N           -0.3330     0.0400    -2.4150 n8         1 LYT      -0.885800
      3 C2          -0.3070     0.0230     0.0400 c3         1 LYT      -0.079400
      4 C3           0.5430    -0.0440     1.3020 c3         1 LYT      -0.075400
      5 C4          -0.2910     0.0200     2.5750 c3         1 LYT      -0.088100
      6 H11          1.1950     0.8370    -1.2540 h1         1 LYT       0.025200
      7 H12          1.1640    -0.9160    -1.2090 h1         1 LYT       0.025200
      8 HN1          0.2410     0.0390    -3.2490 hn         1 LYT       0.335300
      9 HN2         -0.8870    -0.8060    -2.4680 hn         1 LYT       0.335300
     10 H21         -1.0200    -0.8090     0.0400 hc         1 LYT       0.045200
     11 H22         -0.9050     0.9410     0.0450 hc         1 LYT       0.045200
     12 H31          1.2660     0.7770     1.2970 hc         1 LYT       0.035200
     13 H32          1.1320    -0.9670     1.2960 hc         1 LYT       0.035200
     14 H41          0.3330    -0.0290     3.4680 hc         1 LYT       0.032033
     15 H42         -0.8630     0.9480     2.6220 hc         1 LYT       0.032033
     16 H43         -1.0020    -0.8070     2.6210 hc         1 LYT       0.032033
@<TRIPOS>BOND
     1     1     2 1   
     2     1     3 1   
     3     1     6 1   
     4     1     7 1   
     5     2     8 1   
     6     2     9 1   
     7     3     4 1   
     8     3    10 1   
     9     3    11 1   
    10     4     5 1   
    11     4    12 1   
    12     4    13 1   
    13     5    14 1   
    14     5    15 1   
    15     5    16 1   
@<TRIPOS>SUBSTRUCTURE
     1 LYT         1 TEMP              0 ****  ****    0 ROOT
