@<TRIPOS>MOLECULE
LYU
   41    40     1     0     0
SMALL
bcc


@<TRIPOS>ATOM
      1 N            0.4810    21.5880    54.4210 n8         1 LYU      -0.890800
      2 CA           1.0770    21.9630    55.7030 c3         1 LYU       0.014500
      3 CB           2.5340    22.3630    55.4580 c3         1 LYU      -0.046400
      4 CG           3.3570    22.6280    56.7120 c3         1 LYU      -0.071400
      5 CD           4.8180    22.9100    56.3850 c3         1 LYU      -0.078400
      6 CE           5.6710    23.1720    57.6180 c3         1 LYU       0.155800
      7 NZ           7.0510    23.4210    57.2430 n7         1 LYU      -0.810200
      8 C1           7.9300    23.8090    58.3290 c3         1 LYU       0.162800
      9 C2           8.1430    22.7850    59.4450 c3         1 LYU      -0.116400
     10 C3           9.1730    23.2630    60.4610 c3         1 LYU      -0.068400
     11 C4           9.5050    22.2570    61.5660 c3         1 LYU      -0.060700
     12 C5           8.2980    21.9510    62.4470 c3         1 LYU      -0.086600
     13 C6          10.6660    22.7650    62.4160 c3         1 LYU      -0.086600
     14 C            0.3330    23.1040    56.4370 c          1 LYU       0.899600
     15 O           -0.0610    24.0500    55.7210 o          1 LYU      -0.841800
     16 HN          -0.4480    21.2200    54.5890 hn         1 LYU       0.325800
     17 H2           0.3230    22.4470    53.9040 hn         1 LYU       0.325800
     18 HA           1.0740    21.0730    56.3410 h1         1 LYU       0.036700
     19 HB           3.0100    21.5630    54.8820 hc         1 LYU       0.023200
     20 HBA          2.5540    23.2530    54.8170 hc         1 LYU       0.023200
     21 HG           2.9430    23.4720    57.2690 hc         1 LYU       0.049200
     22 HGA          3.2910    21.7620    57.3790 hc         1 LYU       0.049200
     23 HD           5.2360    22.0590    55.8350 hc         1 LYU       0.033200
     24 HDA          4.8890    23.7730    55.7160 hc         1 LYU       0.033200
     25 HE           5.2950    24.0590    58.1380 h1         1 LYU       0.029700
     26 HEA          5.5490    22.3320    58.3200 h1         1 LYU       0.029700
     27 HNZ          7.4240    22.5940    56.7910 hn         1 LYU       0.344800
     28 H1           8.9030    24.0610    57.8940 h1         1 LYU       0.042700
     29 H1'A         7.5450    24.7370    58.7640 h1         1 LYU       0.042700
     30 H7           7.1920    22.5750    59.9400 hc         1 LYU       0.041200
     31 H2'A         8.4780    21.8390    59.0020 hc         1 LYU       0.041200
     32 H3          10.0980    23.5160    59.9300 hc         1 LYU       0.034700
     33 H3'A         8.8280    24.1960    60.9230 hc         1 LYU       0.034700
     34 H4           9.8200    21.3240    61.0830 hc         1 LYU       0.041700
     35 H5           8.5570    21.2420    63.2360 hc         1 LYU       0.030367
     36 H5'A         7.9310    22.8610    62.9290 hc         1 LYU       0.030367
     37 H5'B         7.4710    21.5200    61.8820 hc         1 LYU       0.030367
     38 H6          10.9340    22.0470    63.1930 hc         1 LYU       0.030367
     39 H6'A        11.5560    22.9470    61.8110 hc         1 LYU       0.030367
     40 H6'B        10.4030    23.7040    62.9100 hc         1 LYU       0.030367
     41 OXT          0.2110    23.0050    57.6750 o          1 LYU      -0.841800
@<TRIPOS>BOND
     1     1     2 1   
     2     1    16 1   
     3     1    17 1   
     4     2     3 1   
     5     2    14 1   
     6     2    18 1   
     7     3     4 1   
     8     3    19 1   
     9     3    20 1   
    10     4     5 1   
    11     4    21 1   
    12     4    22 1   
    13     5     6 1   
    14     5    23 1   
    15     5    24 1   
    16     6     7 1   
    17     6    25 1   
    18     6    26 1   
    19     7     8 1   
    20     7    27 1   
    21     8     9 1   
    22     8    28 1   
    23     8    29 1   
    24     9    10 1   
    25     9    30 1   
    26     9    31 1   
    27    10    11 1   
    28    10    32 1   
    29    10    33 1   
    30    11    12 1   
    31    11    13 1   
    32    11    34 1   
    33    12    35 1   
    34    12    36 1   
    35    12    37 1   
    36    13    38 1   
    37    13    39 1   
    38    13    40 1   
    39    14    15 1   
    40    14    41 1   
@<TRIPOS>SUBSTRUCTURE
     1 LYU         1 TEMP              0 ****  ****    0 ROOT
