@<TRIPOS>MOLECULE
LYU
   41    40     1     0     0
SMALL
No Charge or Current Charge


@<TRIPOS>ATOM
      1 N            0.3690    21.3870    54.4850 n8         1 LYU      -0.890800
      2 CA           1.0120    21.9910    55.7130 c3         1 LYU       0.014500
      3 CB           2.5180    22.2520    55.4330 c3         1 LYU      -0.046400
      4 CG           3.3300    22.6780    56.6800 c3         1 LYU      -0.071400
      5 CD           4.8340    22.8720    56.3850 c3         1 LYU      -0.078400
      6 CE           5.6400    23.2940    57.6300 c3         1 LYU       0.155800
      7 NZ           7.0640    23.4640    57.2800 n7         1 LYU      -0.810200
      8 C1           7.9550    23.9550    58.3510 c3         1 LYU       0.162800
      9 C2           8.1970    22.8730    59.4280 c3         1 LYU      -0.116400
     10 C3           9.2060    23.3270    60.5110 c3         1 LYU      -0.068400
     11 C4           9.5710    22.2410    61.5610 c3         1 LYU      -0.060700
     12 C5           8.3530    21.7700    62.3930 c3         1 LYU      -0.086600
     13 C6          10.7080    22.7280    62.4870 c3         1 LYU      -0.086600
     14 C            0.2980    23.2720    56.3340 c          1 LYU       0.899600
     15 O            0.0820    24.2380    55.6090 o          1 LYU      -0.841800
     16 HN          -0.6050    21.1430    54.7010 hn         1 LYU       0.325800
     17 H2           0.2880    22.1150    53.7670 hn         1 LYU       0.325800
     18 HA           0.9660    21.2140    56.4880 h1         1 LYU       0.036700
     19 HB           2.9680    21.3400    55.0210 hc         1 LYU       0.023200
     20 HBA          2.6150    23.0270    54.6620 hc         1 LYU       0.023200
     21 HG           2.9250    23.6160    57.0810 hc         1 LYU       0.049200
     22 HGA          3.2120    21.9180    57.4620 hc         1 LYU       0.049200
     23 HD           5.2460    21.9350    55.9890 hc         1 LYU       0.033200
     24 HDA          4.9520    23.6330    55.6030 hc         1 LYU       0.033200
     25 HE           5.2290    24.2360    58.0200 h1         1 LYU       0.029700
     26 HEA          5.5190    22.5270    58.4060 h1         1 LYU       0.029700
     27 HNZ          7.4280    22.5690    56.9390 hn         1 LYU       0.344800
     28 H1           8.9260    24.2330    57.9180 h1         1 LYU       0.042700
     29 H1'A         7.5380    24.8560    58.8220 h1         1 LYU       0.042700
     30 H7           7.2440    22.6220    59.9060 hc         1 LYU       0.041200
     31 H2'A         8.5730    21.9610    58.9470 hc         1 LYU       0.041200
     32 H3          10.1270    23.6500    60.0090 hc         1 LYU       0.034700
     33 H3'A         8.8070    24.2090    61.0260 hc         1 LYU       0.034700
     34 H4           9.9530    21.3670    61.0160 hc         1 LYU       0.041700
     35 H5           8.6620    21.0420    63.1520 hc         1 LYU       0.030367
     36 H5'A         7.8790    22.6170    62.9040 hc         1 LYU       0.030367
     37 H5'B         7.6020    21.2840    61.7590 hc         1 LYU       0.030367
     38 H6          11.0020    21.9400    63.1890 hc         1 LYU       0.030367
     39 H6'A        11.5940    23.0050    61.9020 hc         1 LYU       0.030367
     40 H6'B        10.3920    23.6040    63.0660 hc         1 LYU       0.030367
     41 OXT         -0.1360    23.2040    57.4790 o          1 LYU      -0.841800
@<TRIPOS>BOND
     1     1     2 1   
     2     1    16 1   
     3     1    17 1   
     4     2     3 1   
     5     2    14 1   
     6     2    18 1   
     7     3     4 1   
     8     3    19 1   
     9     3    20 1   
    10     4     5 1   
    11     4    21 1   
    12     4    22 1   
    13     5     6 1   
    14     5    23 1   
    15     5    24 1   
    16     6     7 1   
    17     6    25 1   
    18     6    26 1   
    19     7     8 1   
    20     7    27 1   
    21     8     9 1   
    22     8    28 1   
    23     8    29 1   
    24     9    10 1   
    25     9    30 1   
    26     9    31 1   
    27    10    11 1   
    28    10    32 1   
    29    10    33 1   
    30    11    12 1   
    31    11    13 1   
    32    11    34 1   
    33    12    35 1   
    34    12    36 1   
    35    12    37 1   
    36    13    38 1   
    37    13    39 1   
    38    13    40 1   
    39    14    15 1   
    40    14    41 1   
@<TRIPOS>SUBSTRUCTURE
     1 LYU         1 TEMP              0 ****  ****    0 ROOT
