@<TRIPOS>MOLECULE
LYW
   21    20     1     0     0
SMALL
No Charge or Current Charge


@<TRIPOS>ATOM
      1 C1          -1.1880    -0.1380     0.4450 c3         1 LYW       0.040500
      2 N           -1.3550    -1.5410    -0.0730 n8         1 LYW      -0.979200
      3 C           -2.4280     0.8130     0.2910 c          1 LYW       0.575900
      4 O           -3.4040     0.5700    -0.4150 o          1 LYW      -0.494100
      5 C2           0.0820     0.5130    -0.1640 c3         1 LYW      -0.113400
      6 C3           1.4110    -0.1860     0.2180 c3         1 LYW      -0.076400
      7 C4           2.6540     0.5380    -0.3460 c3         1 LYW      -0.075400
      8 C5           3.9790    -0.1530     0.0320 c3         1 LYW      -0.089100
      9 H1          -1.0230    -0.2070     1.5300 h1         1 LYW       0.076700
     10 HN1         -1.5720    -1.5100    -1.0780 hn         1 LYW       0.402000
     11 HN2         -0.4520    -2.0270    -0.0350 hn         1 LYW       0.402000
     12 H           -2.3830     1.7470     0.8950 h4         1 LYW      -0.018800
     13 H21          0.1360     1.5550     0.1760 hc         1 LYW       0.047200
     14 H22         -0.0120     0.5490    -1.2570 hc         1 LYW       0.047200
     15 H31          1.4080    -1.2190    -0.1520 hc         1 LYW       0.038700
     16 H32          1.4910    -0.2360     1.3110 hc         1 LYW       0.038700
     17 H41          2.6740     1.5700     0.0240 hc         1 LYW       0.038700
     18 H42          2.5800     0.5910    -1.4390 hc         1 LYW       0.038700
     19 H51          4.1000    -0.1910     1.1220 hc         1 LYW       0.033367
     20 H52          4.0070    -1.1790    -0.3560 hc         1 LYW       0.033367
     21 H53          4.8300     0.3960    -0.3880 hc         1 LYW       0.033367
@<TRIPOS>BOND
     1     1     2 1   
     2     1     3 1   
     3     1     5 1   
     4     1     9 1   
     5     2    10 1   
     6     2    11 1   
     7     3     4 2   
     8     3    12 1   
     9     5     6 1   
    10     5    13 1   
    11     5    14 1   
    12     6     7 1   
    13     6    15 1   
    14     6    16 1   
    15     7     8 1   
    16     7    17 1   
    17     7    18 1   
    18     8    19 1   
    19     8    20 1   
    20     8    21 1   
@<TRIPOS>SUBSTRUCTURE
     1 LYW         1 TEMP              0 ****  ****    0 ROOT
