@<TRIPOS>MOLECULE
LYW
   21    20     1     0     0
SMALL
abcg2


@<TRIPOS>ATOM
      1 C1          -1.1430    -0.1730     0.4290 c3         1 LYW       0.040500
      2 N           -1.4140    -1.4900    -0.0990 n8         1 LYW      -0.979200
      3 C           -2.3250     0.7360     0.2510 c          1 LYW       0.575900
      4 O           -3.3290     0.4620    -0.3560 o          1 LYW      -0.494100
      5 C2           0.1000     0.5460    -0.1290 c3         1 LYW      -0.113400
      6 C3           1.4040    -0.1590     0.2190 c3         1 LYW      -0.076400
      7 C4           2.6280     0.5520    -0.3450 c3         1 LYW      -0.075400
      8 C5           3.9330    -0.1430     0.0180 c3         1 LYW      -0.089100
      9 H1          -1.0050    -0.2570     1.5170 h1         1 LYW       0.076700
     10 HN1         -1.4980    -1.4500    -1.1080 hn         1 LYW       0.402000
     11 HN2         -0.6350    -2.1050     0.0960 hn         1 LYW       0.402000
     12 H           -2.1990     1.7290     0.7220 h4         1 LYW      -0.018800
     13 H21          0.1360     1.5690     0.2610 hc         1 LYW       0.047200
     14 H22         -0.0010     0.6330    -1.2160 hc         1 LYW       0.047200
     15 H31          1.3850    -1.1880    -0.1550 hc         1 LYW       0.038700
     16 H32          1.4940    -0.2310     1.3080 hc         1 LYW       0.038700
     17 H41          2.6480     1.5830     0.0200 hc         1 LYW       0.038700
     18 H42          2.5380     0.6170    -1.4340 hc         1 LYW       0.038700
     19 H51          4.0660    -0.1950     1.1000 hc         1 LYW       0.033367
     20 H52          3.9570    -1.1650    -0.3650 hc         1 LYW       0.033367
     21 H53          4.7940     0.3840    -0.3950 hc         1 LYW       0.033367
@<TRIPOS>BOND
     1     1     2 1   
     2     1     3 1   
     3     1     5 1   
     4     1     9 1   
     5     2    10 1   
     6     2    11 1   
     7     3     4 2   
     8     3    12 1   
     9     5     6 1   
    10     5    13 1   
    11     5    14 1   
    12     6     7 1   
    13     6    15 1   
    14     6    16 1   
    15     7     8 1   
    16     7    17 1   
    17     7    18 1   
    18     8    19 1   
    19     8    20 1   
    20     8    21 1   
@<TRIPOS>SUBSTRUCTURE
     1 LYW         1 TEMP              0 ****  ****    0 ROOT
