@<TRIPOS>MOLECULE
LYY
   19    19     1     0     0
SMALL
abcg2


@<TRIPOS>ATOM
      1 O3          36.2980    26.4720   -44.6110 oh         1 LYY      -0.672000
      2 O5          34.4350    27.0690   -41.6350 os         1 LYY      -0.442000
      3 C1          34.6170    28.0390   -42.6620 c6         1 LYY       0.121600
      4 C2          34.1640    27.4800   -44.0080 c6         1 LYY       0.117300
      5 O2          34.4180    28.4010   -45.0700 oh         1 LYY      -0.728500
      6 C3          34.9230    26.2010   -44.3510 c6         1 LYY       0.182300
      7 C4          34.8670    25.2160   -43.1830 c6         1 LYY       0.117300
      8 O4          33.5450    24.6760   -43.1730 oh         1 LYY      -0.728500
      9 C5          35.2220    25.9050   -41.8710 c6         1 LYY       0.121600
     10 H3          36.3310    27.2650   -45.1640 ho         1 LYY       0.468000
     11 H11         34.0160    28.9070   -42.3880 h1         1 LYY       0.056200
     12 H12         35.6700    28.3430   -42.7210 h1         1 LYY       0.056200
     13 H2          33.0980    27.2410   -43.9530 h1         1 LYY       0.064700
     14 H2A         33.9510    29.2270   -44.8920 ho         1 LYY       0.510500
     15 H3A         34.4590    25.7360   -45.2290 h1         1 LYY       0.066700
     16 H4          35.6020    24.4240   -43.3670 h1         1 LYY       0.064700
     17 H4A         33.4680    24.0750   -42.4220 ho         1 LYY       0.510500
     18 H51         36.2870    26.1670   -41.8830 h1         1 LYY       0.056200
     19 H52         35.0390    25.2300   -41.0330 h1         1 LYY       0.056200
@<TRIPOS>BOND
     1     1     6 1   
     2     1    10 1   
     3     2     3 1   
     4     2     9 1   
     5     3     4 1   
     6     3    11 1   
     7     3    12 1   
     8     4     5 1   
     9     4     6 1   
    10     4    13 1   
    11     5    14 1   
    12     6     7 1   
    13     6    15 1   
    14     7     8 1   
    15     7     9 1   
    16     7    16 1   
    17     8    17 1   
    18     9    18 1   
    19     9    19 1   
@<TRIPOS>SUBSTRUCTURE
     1 LYY         1 TEMP              0 ****  ****    0 ROOT
