@<TRIPOS>MOLECULE
LYY
   19    19     1     0     0
SMALL
No Charge or Current Charge


@<TRIPOS>ATOM
      1 O3          36.3570    26.5550   -44.6660 oh         1 LYY      -0.672000
      2 O5          34.4590    26.8600   -41.6190 os         1 LYY      -0.442000
      3 C1          34.5600    27.9400   -42.5790 c6         1 LYY       0.121600
      4 C2          34.1850    27.4480   -44.0130 c6         1 LYY       0.117300
      5 O2          34.4190    28.4870   -44.9930 oh         1 LYY      -0.728500
      6 C3          35.0000    26.1670   -44.3920 c6         1 LYY       0.182300
      7 C4          34.9290    25.0960   -43.2510 c6         1 LYY       0.117300
      8 O4          33.5870    24.5780   -43.1240 oh         1 LYY      -0.728500
      9 C5          35.3510    25.7570   -41.9090 c6         1 LYY       0.121600
     10 H3          36.2560    27.4550   -45.0590 ho         1 LYY       0.468000
     11 H11         33.8820    28.7480   -42.2710 h1         1 LYY       0.056200
     12 H12         35.5860    28.3360   -42.5660 h1         1 LYY       0.056200
     13 H2          33.1180    27.1770   -44.0070 h1         1 LYY       0.064700
     14 H2A         33.7100    29.1650   -44.8780 ho         1 LYY       0.510500
     15 H3A         34.5550    25.7330   -45.3000 h1         1 LYY       0.066700
     16 H4          35.6290    24.2810   -43.4870 h1         1 LYY       0.064700
     17 H4A         33.1440    25.1460   -42.4480 ho         1 LYY       0.510500
     18 H51         36.3880    26.1220   -41.9610 h1         1 LYY       0.056200
     19 H52         35.2940    25.0230   -41.0920 h1         1 LYY       0.056200
@<TRIPOS>BOND
     1     1     6 1   
     2     1    10 1   
     3     2     3 1   
     4     2     9 1   
     5     3     4 1   
     6     3    11 1   
     7     3    12 1   
     8     4     5 1   
     9     4     6 1   
    10     4    13 1   
    11     5    14 1   
    12     6     7 1   
    13     6    15 1   
    14     7     8 1   
    15     7     9 1   
    16     7    16 1   
    17     8    17 1   
    18     9    18 1   
    19     9    19 1   
@<TRIPOS>SUBSTRUCTURE
     1 LYY         1 TEMP              0 ****  ****    0 ROOT
