@<TRIPOS>MOLECULE
LYZ
   24    23     1     0     0
SMALL
bcc


@<TRIPOS>ATOM
      1 N           17.7840    47.0970    22.1280 n8         1 LYZ      -0.877800
      2 CA          16.6010    47.8940    22.4150 c3         1 LYZ       0.017500
      3 C           15.5860    47.8110    21.2490 c          1 LYZ       0.936600
      4 O           14.4030    48.0850    21.5360 o          1 LYZ      -0.836800
      5 CB          16.8780    49.3770    22.7170 c3         1 LYZ      -0.096400
      6 CG          17.7450    49.6010    23.9500 c3         1 LYZ      -0.073400
      7 CD          18.0170    51.0630    24.2590 c3         1 LYZ       0.153100
      8 CE          19.0260    51.2160    25.3920 c3         1 LYZ       0.109800
      9 NZ          19.2160    52.6200    25.7340 n8         1 LYZ      -0.900800
     10 OH          16.7880    51.6880    24.5810 oh         1 LYZ      -0.590800
     11 OXT         16.0330    47.5220    20.1210 o          1 LYZ      -0.836800
     12 H           18.5150    47.2900    22.8010 hn         1 LYZ       0.316300
     13 H2          18.1430    47.3710    21.2220 hn         1 LYZ       0.316300
     14 HA          16.1180    47.4690    23.3030 h1         1 LYZ       0.042700
     15 HB2         17.3600    49.8350    21.8450 hc         1 LYZ       0.050200
     16 HB3         15.9220    49.8880    22.8500 hc         1 LYZ       0.050200
     17 HG2         17.2780    49.1280    24.8210 hc         1 LYZ       0.031200
     18 HG3         18.7160    49.1110    23.8210 hc         1 LYZ       0.031200
     19 HD          18.4540    51.5330    23.3640 h1         1 LYZ       0.034700
     20 HE2         18.7120    50.5990    26.2460 h1         1 LYZ       0.032200
     21 HE3         19.9800    50.8090    25.0490 h1         1 LYZ       0.032200
     22 HZ1         20.1080    52.7430    26.1940 hn         1 LYZ       0.332800
     23 HZ2         18.5220    52.9070    26.4110 hn         1 LYZ       0.332800
     24 HH          16.9480    52.6360    24.6350 ho         1 LYZ       0.394000
@<TRIPOS>BOND
     1     1     2 1   
     2     1    12 1   
     3     1    13 1   
     4     2     3 1   
     5     2     5 1   
     6     2    14 1   
     7     3     4 1   
     8     3    11 1   
     9     5     6 1   
    10     5    15 1   
    11     5    16 1   
    12     6     7 1   
    13     6    17 1   
    14     6    18 1   
    15     7     8 1   
    16     7    10 1   
    17     7    19 1   
    18     8     9 1   
    19     8    20 1   
    20     8    21 1   
    21     9    22 1   
    22     9    23 1   
    23    10    24 1   
@<TRIPOS>SUBSTRUCTURE
     1 LYZ         1 TEMP              0 ****  ****    0 ROOT
