@<TRIPOS>MOLECULE
LYZ
   24    23     1     0     0
SMALL
No Charge or Current Charge


@<TRIPOS>ATOM
      1 N           17.8150    47.0690    22.1220 n8         1 LYZ      -0.877800
      2 CA          16.5570    47.8700    22.3640 c3         1 LYZ       0.017500
      3 C           15.4050    47.7600    21.2680 c          1 LYZ       0.936600
      4 O           14.3260    47.2730    21.5930 o          1 LYZ      -0.836800
      5 CB          16.9170    49.3560    22.6430 c3         1 LYZ      -0.096400
      6 CG          17.7550    49.5870    23.9300 c3         1 LYZ      -0.073400
      7 CD          18.0850    51.0740    24.2120 c3         1 LYZ       0.153100
      8 CE          19.0490    51.2450    25.4250 c3         1 LYZ       0.109800
      9 NZ          19.2920    52.6610    25.8000 n8         1 LYZ      -0.900800
     10 OH          16.8760    51.8100    24.4480 oh         1 LYZ      -0.590800
     11 OXT         15.6500    48.0980    20.1120 o          1 LYZ      -0.836800
     12 H           18.5120    47.3150    22.8310 hn         1 LYZ       0.316300
     13 H2          18.2310    47.3650    21.2330 hn         1 LYZ       0.316300
     14 HA          16.1160    47.4760    23.2900 h1         1 LYZ       0.042700
     15 HB2         17.4490    49.7730    21.7790 hc         1 LYZ       0.050200
     16 HB3         15.9800    49.9210    22.7310 hc         1 LYZ       0.050200
     17 HG2         17.2210    49.1650    24.7910 hc         1 LYZ       0.031200
     18 HG3         18.7010    49.0370    23.8470 hc         1 LYZ       0.031200
     19 HD          18.5910    51.4830    23.3270 h1         1 LYZ       0.034700
     20 HE2         18.6510    50.7140    26.3000 h1         1 LYZ       0.032200
     21 HE3         20.0160    50.7910    25.1660 h1         1 LYZ       0.032200
     22 HZ1         20.0310    52.6960    26.5100 hn         1 LYZ       0.332800
     23 HZ2         18.4670    53.0250    26.2880 hn         1 LYZ       0.332800
     24 HH          17.1580    52.7300    24.6340 ho         1 LYZ       0.394000
@<TRIPOS>BOND
     1     1     2 1   
     2     1    12 1   
     3     1    13 1   
     4     2     3 1   
     5     2     5 1   
     6     2    14 1   
     7     3     4 1   
     8     3    11 1   
     9     5     6 1   
    10     5    15 1   
    11     5    16 1   
    12     6     7 1   
    13     6    17 1   
    14     6    18 1   
    15     7     8 1   
    16     7    10 1   
    17     7    19 1   
    18     8     9 1   
    19     8    20 1   
    20     8    21 1   
    21     9    22 1   
    22     9    23 1   
    23    10    24 1   
@<TRIPOS>SUBSTRUCTURE
     1 LYZ         1 TEMP              0 ****  ****    0 ROOT
