@<TRIPOS>MOLECULE
LZ0
   37    38     1     0     0
SMALL
abcg2


@<TRIPOS>ATOM
      1 C1          39.2820     4.5100    -3.3450 c6         1 LZ0       0.344300
      2 C2          37.8770     4.4370    -2.7330 c6         1 LZ0       0.125300
      3 C3          36.9670     3.5720    -3.6030 c6         1 LZ0       0.182300
      4 C4          37.6280     2.2130    -3.8430 c6         1 LZ0       0.103300
      5 C5          39.0370     2.3940    -4.4030 c6         1 LZ0       0.146300
      6 C6          39.7910     1.0880    -4.5470 c3         1 LZ0      -0.092100
      7 O1          39.1930     5.2490    -4.5290 os         1 LZ0      -0.474000
      8 O2          37.3040     5.7110    -2.5950 oh         1 LZ0      -0.697000
      9 O3          35.6830     3.4330    -3.0550 oh         1 LZ0      -0.637000
     10 O4          37.6260     1.5300    -2.6050 oh         1 LZ0      -0.724000
     11 O5          39.8130     3.2400    -3.5590 os         1 LZ0      -0.459000
     12 O6          39.9400     8.8990    -6.3390 o          1 LZ0      -0.490100
     13 C11         39.0560     8.9180    -5.5250 c          1 LZ0       0.563900
     14 N1          40.4940     7.8750    -3.8360 na         1 LZ0       0.143800
     15 C7          41.0780     6.7280    -4.2400 cc         1 LZ0      -0.220300
     16 C9          40.4240     5.6760    -5.0710 c3         1 LZ0       0.227900
     17 C8          42.3380     6.8080    -3.7070 cd         1 LZ0       0.203900
     18 N3          42.4490     7.9760    -3.0410 nd         1 LZ0      -0.353000
     19 N2          41.3340     8.6110    -3.1220 nc         1 LZ0      -0.200800
     20 H1          39.9670     4.9930    -2.6340 h2         1 LZ0       0.077700
     21 H2          37.9910     3.9530    -1.7540 h1         1 LZ0       0.062700
     22 H3          36.8350     4.0590    -4.5740 h1         1 LZ0       0.095700
     23 HA          37.6880     6.1380    -1.8230 ho         1 LZ0       0.503000
     24 H4          37.0380     1.6670    -4.5910 h1         1 LZ0       0.052700
     25 HB          35.7480     2.8270    -2.3070 ho         1 LZ0       0.452000
     26 H5          38.9330     2.8460    -5.3980 h1         1 LZ0       0.051700
     27 HC          37.6030     0.5830    -2.7670 ho         1 LZ0       0.512000
     28 H6C1        40.7660     1.2520    -5.0050 hc         1 LZ0       0.048033
     29 H6C2        39.9460     0.6040    -3.5820 hc         1 LZ0       0.048033
     30 H6C3        39.2360     0.4030    -5.1880 hc         1 LZ0       0.048033
     31 H3'1        41.1310     4.8510    -5.1970 h1         1 LZ0       0.074200
     32 H3'2        40.2020     6.0590    -6.0680 h1         1 LZ0       0.074200
     33 H4'1        38.9400     9.1710    -3.4220 h1         1 LZ0       0.107200
     34 H4'2        38.4270     7.5940    -3.9820 h1         1 LZ0       0.107200
     35 H7          43.1450     6.0970    -3.7740 h4         1 LZ0       0.051100
     36 H1A         38.0620     9.3410    -5.7440 h4         1 LZ0       0.005200
     37 C10         39.1780     8.3730    -4.1290 c3         1 LZ0      -0.064400
@<TRIPOS>BOND
     1     1     2 1   
     2     1     7 1   
     3     1    11 1   
     4     1    20 1   
     5     2     3 1   
     6     2     8 1   
     7     2    21 1   
     8     3     4 1   
     9     3     9 1   
    10     3    22 1   
    11     4     5 1   
    12     4    10 1   
    13     4    24 1   
    14     5     6 1   
    15     5    11 1   
    16     5    26 1   
    17     6    28 1   
    18     6    29 1   
    19     6    30 1   
    20     7    16 1   
    21     8    23 1   
    22     9    25 1   
    23    10    27 1   
    24    12    13 2   
    25    13    36 1   
    26    13    37 1   
    27    14    15 1   
    28    14    19 1   
    29    14    37 1   
    30    15    16 1   
    31    15    17 2   
    32    16    31 1   
    33    16    32 1   
    34    17    18 1   
    35    17    35 1   
    36    18    19 2   
    37    33    37 1   
    38    34    37 1   
@<TRIPOS>SUBSTRUCTURE
     1 LZ0         1 TEMP              0 ****  ****    0 ROOT
