@<TRIPOS>MOLECULE
LZ0
   37    38     1     0     0
SMALL
No Charge or Current Charge


@<TRIPOS>ATOM
      1 C1          39.2450     4.6450    -3.3130 c6         1 LZ0       0.344300
      2 C2          37.8350     4.5330    -2.6350 c6         1 LZ0       0.125300
      3 C3          36.9070     3.6030    -3.4780 c6         1 LZ0       0.182300
      4 C4          37.5850     2.2220    -3.7220 c6         1 LZ0       0.103300
      5 C5          38.9820     2.4740    -4.3810 c6         1 LZ0       0.146300
      6 C6          39.7940     1.1780    -4.6350 c3         1 LZ0      -0.092100
      7 O1          39.1840     5.3640    -4.5660 os         1 LZ0      -0.474000
      8 O2          37.2020     5.8200    -2.4300 oh         1 LZ0      -0.697000
      9 O3          35.6590     3.3960    -2.7930 oh         1 LZ0      -0.637000
     10 O4          37.6760     1.5050    -2.4650 oh         1 LZ0      -0.724000
     11 O5          39.7980     3.3270    -3.5460 os         1 LZ0      -0.459000
     12 O6          39.7920     9.0330    -6.3820 o          1 LZ0      -0.490100
     13 C11         38.9800     8.7480    -5.5070 c          1 LZ0       0.563900
     14 N1          40.6920     7.8970    -3.8790 na         1 LZ0       0.143800
     15 C7          41.1720     6.6920    -4.3430 cc         1 LZ0      -0.220300
     16 C9          40.4390     5.6860    -5.1920 c3         1 LZ0       0.227900
     17 C8          42.4520     6.6560    -3.8640 cd         1 LZ0       0.203900
     18 N3          42.6990     7.8040    -3.1400 nd         1 LZ0      -0.353000
     19 N2          41.6320     8.5550    -3.1450 nc         1 LZ0      -0.200800
     20 H1          39.9050     5.1890    -2.6200 h2         1 LZ0       0.077700
     21 H2          37.9940     4.0530    -1.6580 h1         1 LZ0       0.062700
     22 H3          36.7330     4.0810    -4.4550 h1         1 LZ0       0.095700
     23 HA          36.2500     5.6200    -2.2670 ho         1 LZ0       0.503000
     24 H4          36.9690     1.6530    -4.4350 h1         1 LZ0       0.052700
     25 HB          35.8250     2.5900    -2.2500 ho         1 LZ0       0.452000
     26 H5          38.8320     2.9640    -5.3550 h1         1 LZ0       0.051700
     27 HC          38.2540     0.7220    -2.6150 ho         1 LZ0       0.512000
     28 H6C1        40.7160     1.4010    -5.1840 hc         1 LZ0       0.048033
     29 H6C2        40.0800     0.6840    -3.6980 hc         1 LZ0       0.048033
     30 H6C3        39.2190     0.4640    -5.2350 hc         1 LZ0       0.048033
     31 H3'1        41.0570     4.7870    -5.3220 h1         1 LZ0       0.074200
     32 H3'2        40.2690     6.1140    -6.1890 h1         1 LZ0       0.074200
     33 H4'1        39.2690     9.4150    -3.5020 h1         1 LZ0       0.107200
     34 H4'2        38.6090     7.7760    -3.6470 h1         1 LZ0       0.107200
     35 H7          43.2000     5.8840    -3.9950 h4         1 LZ0       0.051100
     36 H1A         37.8950     8.6730    -5.7380 h4         1 LZ0       0.005200
     37 C10         39.3490     8.4720    -4.0540 c3         1 LZ0      -0.064400
@<TRIPOS>BOND
     1     1     2 1   
     2     1     7 1   
     3     1    11 1   
     4     1    20 1   
     5     2     3 1   
     6     2     8 1   
     7     2    21 1   
     8     3     4 1   
     9     3     9 1   
    10     3    22 1   
    11     4     5 1   
    12     4    10 1   
    13     4    24 1   
    14     5     6 1   
    15     5    11 1   
    16     5    26 1   
    17     6    28 1   
    18     6    29 1   
    19     6    30 1   
    20     7    16 1   
    21     8    23 1   
    22     9    25 1   
    23    10    27 1   
    24    12    13 2   
    25    13    36 1   
    26    13    37 1   
    27    14    15 1   
    28    14    19 1   
    29    14    37 1   
    30    15    16 1   
    31    15    17 2   
    32    16    31 1   
    33    16    32 1   
    34    17    18 1   
    35    17    35 1   
    36    18    19 2   
    37    33    37 1   
    38    34    37 1   
@<TRIPOS>SUBSTRUCTURE
     1 LZ0         1 TEMP              0 ****  ****    0 ROOT
