@<TRIPOS>MOLECULE
LZ1
   15    16     1     0     0
SMALL
No Charge or Current Charge


@<TRIPOS>ATOM
      1 C1          26.6490     4.4460    64.2420 ca         1 LZ1      -0.037200
      2 C2          27.2810     5.6430    64.3610 ca         1 LZ1      -0.232900
      3 C3          26.8600     6.7820    63.6620 ca         1 LZ1      -0.034000
      4 C4          25.7370     6.6440    62.8150 ca         1 LZ1      -0.150000
      5 C5          25.0770     5.3950    62.6910 ca         1 LZ1      -0.072000
      6 C6          25.5340     4.2710    63.4140 ca         1 LZ1      -0.132000
      7 N           27.3150     3.5540    65.0560 na         1 LZ1      -0.065400
      8 C9          28.3620     5.4250    65.2880 cc         1 LZ1       0.352800
      9 N2          28.3960     4.1530    65.7220 nd         1 LZ1      -0.515100
     10 H6          25.0370     3.3070    63.3280 ha         1 LZ1       0.119000
     11 H           27.0830     2.5700    65.1870 hn         1 LZ1       0.374000
     12 H3          27.3750     7.7350    63.7660 ha         1 LZ1       0.118000
     13 H9          29.1150     6.1030    65.6690 h4         1 LZ1       0.048800
     14 H4          25.3770     7.5040    62.2540 ha         1 LZ1       0.114000
     15 H5          24.2130     5.3020    62.0360 ha         1 LZ1       0.112000
@<TRIPOS>BOND
     1     1     2 ar  
     2     1     6 ar  
     3     1     7 1   
     4     2     3 ar  
     5     2     8 1   
     6     3     4 ar  
     7     3    12 1   
     8     4     5 ar  
     9     4    14 1   
    10     5     6 ar  
    11     5    15 1   
    12     6    10 1   
    13     7     9 1   
    14     7    11 1   
    15     8     9 2   
    16     8    13 1   
@<TRIPOS>SUBSTRUCTURE
     1 LZ1         1 TEMP              0 ****  ****    0 ROOT
