@<TRIPOS>MOLECULE
LZ1
   15    16     1     0     0
SMALL
bcc


@<TRIPOS>ATOM
      1 C1          26.6430     4.4360    64.2390 ca         1 LZ1      -0.037200
      2 C2          27.3060     5.6700    64.3700 ca         1 LZ1      -0.232900
      3 C3          26.8510     6.7840    63.6530 ca         1 LZ1      -0.052000
      4 C4          25.7560     6.6300    62.8340 ca         1 LZ1      -0.168000
      5 C5          25.1040     5.3860    62.7160 ca         1 LZ1      -0.090000
      6 C6          25.5290     4.2740    63.4080 ca         1 LZ1      -0.150000
      7 N           27.3090     3.5760    65.0450 na         1 LZ1      -0.015100
      8 C9          28.3560     5.4010    65.2910 cc         1 LZ1       0.352800
      9 N2          28.3340     4.1520    65.6750 nd         1 LZ1      -0.515100
     10 H6          25.0230     3.3240    63.3100 ha         1 LZ1       0.137000
     11 H           27.1190     2.6030    65.2040 hn         1 LZ1       0.323700
     12 H3          27.3470     7.7420    63.7420 ha         1 LZ1       0.136000
     13 H9          29.1050     6.0780    65.6710 h4         1 LZ1       0.048800
     14 H4          25.3840     7.4730    62.2680 ha         1 LZ1       0.132000
     15 H5          24.2440     5.3050    62.0650 ha         1 LZ1       0.130000
@<TRIPOS>BOND
     1     1     2 ar  
     2     1     6 ar  
     3     1     7 1   
     4     2     3 ar  
     5     2     8 1   
     6     3     4 ar  
     7     3    12 1   
     8     4     5 ar  
     9     4    14 1   
    10     5     6 ar  
    11     5    15 1   
    12     6    10 1   
    13     7     9 1   
    14     7    11 1   
    15     8     9 2   
    16     8    13 1   
@<TRIPOS>SUBSTRUCTURE
     1 LZ1         1 TEMP              0 ****  ****    0 ROOT
