@<TRIPOS>MOLECULE
LZ3
   34    36     1     0     0
SMALL
No Charge or Current Charge


@<TRIPOS>ATOM
      1 N1          29.3000     6.7010    64.2590 ns         1 LZ3      -0.137000
      2 C2          28.2530     6.4160    63.3890 c          1 LZ3       0.567800
      3 C3          27.4340     5.2420    63.8570 cc         1 LZ3       0.285900
      4 C4          25.6340     5.0870    61.9570 ca         1 LZ3      -0.025000
      5 C5          24.5070     4.3350    61.5580 ca         1 LZ3      -0.141000
      6 C6          24.0510     3.2470    62.3420 ca         1 LZ3      -0.069000
      7 C7          24.7210     2.9010    63.5360 ca         1 LZ3      -0.129000
      8 C9          26.2770     4.7150    63.1510 ca         1 LZ3      -0.180900
      9 O11         28.0310     7.0540    62.3620 o          1 LZ3      -0.565100
     10 N12         27.6720     4.5350    64.9870 nd         1 LZ3      -0.514100
     11 N17         26.6650     3.5620    64.9920 na         1 LZ3      -0.036400
     12 C20         30.4570     8.6690    63.2410 ca         1 LZ3      -0.180000
     13 C21         31.4940     9.6170    63.2990 ca         1 LZ3       0.022000
     14 C22         32.4080     9.5980    64.3690 ca         1 LZ3      -0.312500
     15 C23         32.2800     8.6260    65.3790 ca         1 LZ3       0.022000
     16 C24         31.2410     7.6820    65.3130 ca         1 LZ3      -0.180000
     17 S27         33.7270    10.8080    64.4380 sy         1 LZ3       1.130600
     18 O28         34.0410    11.3060    63.0990 o          1 LZ3      -0.547500
     19 O29         34.7500    10.3800    65.3890 o          1 LZ3      -0.547500
     20 N30         32.9870    12.0530    65.1950 n8         1 LZ3      -1.000100
     21 C8          30.3200     7.6910    64.2490 ca         1 LZ3       0.045000
     22 C16         25.8340     3.6690    63.9000 ca         1 LZ3      -0.053200
     23 H1          29.3420     6.0790    65.0570 hn         1 LZ3       0.174000
     24 H4          25.9810     5.9220    61.3520 ha         1 LZ3       0.143000
     25 H5          23.9840     4.5940    60.6400 ha         1 LZ3       0.120000
     26 H6          23.1820     2.6750    62.0240 ha         1 LZ3       0.117000
     27 H7          24.3820     2.0680    64.1480 ha         1 LZ3       0.123000
     28 H17         26.5920     2.8720    65.7400 hn         1 LZ3       0.383000
     29 H20         29.7720     8.7170    62.4010 ha         1 LZ3       0.135000
     30 H21         31.5790    10.3640    62.5100 ha         1 LZ3       0.137000
     31 H23         32.9790     8.5930    66.2140 ha         1 LZ3       0.137000
     32 H24         31.1550     6.9370    66.1010 ha         1 LZ3       0.135000
     33 H301        32.1990    11.5920    65.6430 hn         1 LZ3       0.470500
     34 H302        33.6360    12.2260    65.9590 hn         1 LZ3       0.470500
@<TRIPOS>BOND
     1     1     2 1   
     2     1    21 1   
     3     1    23 1   
     4     2     3 1   
     5     2     9 2   
     6     3     8 1   
     7     3    10 2   
     8     4     5 ar  
     9     4     8 ar  
    10     4    24 1   
    11     5     6 ar  
    12     5    25 1   
    13     6     7 ar  
    14     6    26 1   
    15     7    22 ar  
    16     7    27 1   
    17     8    22 ar  
    18    10    11 1   
    19    11    22 1   
    20    11    28 1   
    21    12    13 ar  
    22    12    21 ar  
    23    12    29 1   
    24    13    14 ar  
    25    13    30 1   
    26    14    15 ar  
    27    14    17 1   
    28    15    16 ar  
    29    15    31 1   
    30    16    21 ar  
    31    16    32 1   
    32    17    18 2   
    33    17    19 2   
    34    17    20 1   
    35    20    33 1   
    36    20    34 1   
@<TRIPOS>SUBSTRUCTURE
     1 LZ3         1 TEMP              0 ****  ****    0 ROOT
