@<TRIPOS>MOLECULE
LZ3
   34    36     1     0     0
SMALL
bcc


@<TRIPOS>ATOM
      1 N1          29.3270     6.6310    64.3340 ns         1 LZ3      -0.463100
      2 C2          28.3050     6.4220    63.4590 c          1 LZ3       0.634800
      3 C3          27.4370     5.2850    63.8060 cc         1 LZ3       0.285900
      4 C4          25.6370     5.1360    61.8990 ca         1 LZ3      -0.043000
      5 C5          24.5450     4.3780    61.5420 ca         1 LZ3      -0.159000
      6 C6          24.1060     3.2970    62.3360 ca         1 LZ3      -0.087000
      7 C7          24.7470     2.9480    63.5010 ca         1 LZ3      -0.147000
      8 C9          26.3100     4.8010    63.0830 ca         1 LZ3      -0.180900
      9 O11         28.0910     7.0920    62.4650 o          1 LZ3      -0.565100
     10 N12         27.6340     4.5690    64.8910 nd         1 LZ3      -0.514100
     11 N17         26.6980     3.6430    64.9210 na         1 LZ3       0.013900
     12 C20         30.3940     8.6290    63.3620 ca         1 LZ3      -0.198000
     13 C21         31.4130     9.5600    63.4400 ca         1 LZ3       0.004000
     14 C22         32.3550     9.4870    64.4570 ca         1 LZ3      -0.312500
     15 C23         32.2890     8.4750    65.4050 ca         1 LZ3       0.004000
     16 C24         31.2720     7.5450    65.3310 ca         1 LZ3      -0.198000
     17 S27         33.6440    10.6870    64.5290 sy         1 LZ3       1.272200
     18 O28         34.0730    11.0350    63.1810 o          1 LZ3      -0.618300
     19 O29         34.6510    10.2080    65.4680 o          1 LZ3      -0.618300
     20 N30         32.8200    12.0070    65.0870 n8         1 LZ3      -0.889700
     21 C8          30.3120     7.6070    64.3160 ca         1 LZ3       0.137600
     22 C16         25.8570     3.7200    63.8570 ca         1 LZ3      -0.053200
     23 H1          29.3800     5.9780    65.1050 hn         1 LZ3       0.340500
     24 H4          25.9670     5.9610    61.2850 ha         1 LZ3       0.161000
     25 H5          24.0070     4.6130    60.6330 ha         1 LZ3       0.138000
     26 H6          23.2410     2.7310    62.0160 ha         1 LZ3       0.135000
     27 H7          24.4090     2.1200    64.1090 ha         1 LZ3       0.141000
     28 H17         26.6700     2.9850    65.6840 hn         1 LZ3       0.332700
     29 H20         29.6760     8.7070    62.5640 ha         1 LZ3       0.153000
     30 H21         31.4600    10.3440    62.6970 ha         1 LZ3       0.155000
     31 H23         33.0190     8.4030    66.1990 ha         1 LZ3       0.155000
     32 H24         31.2210     6.7570    66.0720 ha         1 LZ3       0.153000
     33 H301        32.5430    11.9130    66.0590 hn         1 LZ3       0.415300
     34 H302        33.3570    12.8590    64.9580 hn         1 LZ3       0.415300
@<TRIPOS>BOND
     1     1     2 1   
     2     1    21 1   
     3     1    23 1   
     4     2     3 1   
     5     2     9 2   
     6     3     8 1   
     7     3    10 2   
     8     4     5 ar  
     9     4     8 ar  
    10     4    24 1   
    11     5     6 ar  
    12     5    25 1   
    13     6     7 ar  
    14     6    26 1   
    15     7    22 ar  
    16     7    27 1   
    17     8    22 ar  
    18    10    11 1   
    19    11    22 1   
    20    11    28 1   
    21    12    13 ar  
    22    12    21 ar  
    23    12    29 1   
    24    13    14 ar  
    25    13    30 1   
    26    14    15 ar  
    27    14    17 1   
    28    15    16 ar  
    29    15    31 1   
    30    16    21 ar  
    31    16    32 1   
    32    17    18 2   
    33    17    19 2   
    34    17    20 1   
    35    20    33 1   
    36    20    34 1   
@<TRIPOS>SUBSTRUCTURE
     1 LZ3         1 TEMP              0 ****  ****    0 ROOT
