@<TRIPOS>MOLECULE
LZ4
   27    28     1     0     0
SMALL
bcc


@<TRIPOS>ATOM
      1 N1          33.6640    10.3590    66.1240 n8         1 LZ4      -0.891700
      2 S2          33.3210    10.5580    64.5190 sy         1 LZ4       1.273200
      3 O3          32.9830    11.9340    64.1770 o          1 LZ4      -0.614800
      4 O4          34.4170     9.9200    63.8030 o          1 LZ4      -0.614800
      5 C5          31.8590     9.5880    64.3540 ca         1 LZ4      -0.310500
      6 C6          30.6190    10.2040    64.2610 ca         1 LZ4       0.010500
      7 C7          29.4810     9.4310    64.1400 ca         1 LZ4      -0.205000
      8 C8          29.5670     8.0360    64.0970 ca         1 LZ4       0.231600
      9 N9          28.3960     7.3190    63.9320 nu         1 LZ4      -0.750300
     10 C10         28.1170     6.0240    64.2700 ca         1 LZ4       0.578900
     11 C11         28.8450     5.2660    65.2030 ca         1 LZ4       0.246900
     12 N12         28.4960     4.0280    65.4860 nb         1 LZ4      -0.601000
     13 C13         27.4360     3.5010    64.8900 ca         1 LZ4       0.261900
     14 C14         26.7110     4.2790    64.0020 ca         1 LZ4       0.435000
     15 CL1         25.3000     3.6230    63.2520 cl         1 LZ4      -0.146000
     16 N16         27.0370     5.5070    63.6920 nb         1 LZ4      -0.709000
     17 C17         30.8270     7.4310    64.1600 ca         1 LZ4      -0.205000
     18 C18         31.9630     8.2040    64.2990 ca         1 LZ4       0.010500
     19 H1N1        34.6200    10.6320    66.3330 hn         1 LZ4       0.417300
     20 H1N2        33.0190    10.8570    66.7280 hn         1 LZ4       0.417300
     21 H6          30.5260    11.2810    64.2920 ha         1 LZ4       0.158000
     22 H18         32.9280     7.7160    64.3410 ha         1 LZ4       0.158000
     23 H7          28.5130     9.9120    64.0790 ha         1 LZ4       0.145000
     24 H9          27.6290     7.8080    63.4940 hn         1 LZ4       0.461800
     25 H17         30.9390     6.3610    64.0650 ha         1 LZ4       0.145000
     26 H11         29.6920     5.6730    65.7370 h4         1 LZ4       0.044100
     27 H13         27.1560     2.4830    65.1270 h4         1 LZ4       0.050100
@<TRIPOS>BOND
     1     1     2 1   
     2     1    19 1   
     3     1    20 1   
     4     2     3 2   
     5     2     4 2   
     6     2     5 1   
     7     5     6 ar  
     8     5    18 ar  
     9     6     7 ar  
    10     6    21 1   
    11     7     8 ar  
    12     7    23 1   
    13     8     9 1   
    14     8    17 ar  
    15     9    10 1   
    16     9    24 1   
    17    10    11 ar  
    18    10    16 ar  
    19    11    12 ar  
    20    11    26 1   
    21    12    13 ar  
    22    13    14 ar  
    23    13    27 1   
    24    14    15 1   
    25    14    16 ar  
    26    17    18 ar  
    27    17    25 1   
    28    18    22 1   
@<TRIPOS>SUBSTRUCTURE
     1 LZ4         1 TEMP              0 ****  ****    0 ROOT
