@<TRIPOS>MOLECULE
LZ4
   27    28     1     0     0
SMALL
No Charge or Current Charge


@<TRIPOS>ATOM
      1 N1          33.7070    10.5740    66.1130 n8         1 LZ4      -1.002100
      2 S2          33.4630    10.5990    64.4970 sy         1 LZ4       1.131600
      3 O3          33.1440    11.9960    64.2120 o          1 LZ4      -0.544000
      4 O4          34.6200     9.9120    63.9240 o          1 LZ4      -0.544000
      5 C5          31.9920     9.5890    64.3410 ca         1 LZ4      -0.310500
      6 C6          30.7170    10.1880    64.3040 ca         1 LZ4       0.028500
      7 C7          29.5720     9.3840    64.1770 ca         1 LZ4      -0.187000
      8 C8          29.6850     7.9900    64.0970 ca         1 LZ4       0.370000
      9 N9          28.5280     7.2310    63.9630 nu         1 LZ4      -0.943900
     10 C10         28.1710     5.9460    64.3080 ca         1 LZ4       0.578900
     11 C11         28.8980     5.0460    65.1590 ca         1 LZ4       0.246900
     12 N12         28.4370     3.7970    65.4600 nb         1 LZ4      -0.601000
     13 C13         27.2360     3.4820    64.8940 ca         1 LZ4       0.261900
     14 C14         26.5220     4.3960    64.0640 ca         1 LZ4       0.435000
     15 Cl1         24.9690     3.9520    63.3650 cl         1 LZ4      -0.146000
     16 N16         26.9810     5.6430    63.7670 nb         1 LZ4      -0.709000
     17 C17         30.9570     7.3960    64.1170 ca         1 LZ4      -0.187000
     18 C18         32.1100     8.1880    64.2420 ca         1 LZ4       0.028500
     19 H1N1        33.8070    11.5670    66.3080 hn         1 LZ4       0.472500
     20 H1N2        32.7820    10.3470    66.4680 hn         1 LZ4       0.472500
     21 H6          30.6060    11.2700    64.3700 ha         1 LZ4       0.140000
     22 H18         33.0900     7.7110    64.2550 ha         1 LZ4       0.140000
     23 H7          28.5920     9.8520    64.1500 ha         1 LZ4       0.127000
     24 H9          27.7340     7.7260    63.5670 hn         1 LZ4       0.517000
     25 H17         31.0670     6.3220    64.0090 ha         1 LZ4       0.127000
     26 H11         29.8400     5.3370    65.6180 h4         1 LZ4       0.044100
     27 H13         26.8340     2.4940    65.1080 h4         1 LZ4       0.050100
@<TRIPOS>BOND
     1     1     2 1   
     2     1    19 1   
     3     1    20 1   
     4     2     3 2   
     5     2     4 2   
     6     2     5 1   
     7     5     6 ar  
     8     5    18 ar  
     9     6     7 ar  
    10     6    21 1   
    11     7     8 ar  
    12     7    23 1   
    13     8     9 1   
    14     8    17 ar  
    15     9    10 1   
    16     9    24 1   
    17    10    11 ar  
    18    10    16 ar  
    19    11    12 ar  
    20    11    26 1   
    21    12    13 ar  
    22    13    14 ar  
    23    13    27 1   
    24    14    15 1   
    25    14    16 ar  
    26    17    18 ar  
    27    17    25 1   
    28    18    22 1   
@<TRIPOS>SUBSTRUCTURE
     1 LZ4         1 TEMP              0 ****  ****    0 ROOT
