@<TRIPOS>MOLECULE
LZ5
   23    24     1     0     0
SMALL
No Charge or Current Charge


@<TRIPOS>ATOM
      1 O1          28.3370     7.0220    63.3580 o          1 LZ5      -0.578100
      2 C2          28.5710     6.3100    64.3330 c          1 LZ5       0.542600
      3 N3          29.5520     6.5840    65.2810 ns         1 LZ5      -0.136000
      4 C4          30.4920     7.6430    65.4200 ca         1 LZ5      -0.016000
      5 C5          30.5990     8.7200    64.5120 ca         1 LZ5      -0.150500
      6 C6          31.5550     9.7310    64.7170 ca         1 LZ5      -0.084500
      7 C7          32.4120     9.6770    65.8270 ca         1 LZ5      -0.139000
      8 C8          32.3140     8.6110    66.7350 ca         1 LZ5      -0.084500
      9 C9          31.3580     7.6010    66.5300 ca         1 LZ5      -0.150500
     10 C10         27.8250     5.0420    64.6360 cc         1 LZ5       0.186500
     11 C11         26.7890     4.5800    63.8020 cc         1 LZ5      -0.161000
     12 C12         26.3160     3.4210    64.3360 cd         1 LZ5      -0.186000
     13 N13         27.0920     3.2220    65.4850 na         1 LZ5       0.015800
     14 N15         28.0350     4.2350    65.6730 nd         1 LZ5      -0.522800
     15 H3          29.6050     5.8890    66.0160 hn         1 LZ5       0.169000
     16 H5          29.9540     8.7950    63.6430 ha         1 LZ5       0.128000
     17 H9          31.2930     6.7800    67.2410 ha         1 LZ5       0.128000
     18 H6          31.6310    10.5570    64.0130 ha         1 LZ5       0.112000
     19 H7          33.1510    10.4600    65.9840 ha         1 LZ5       0.114000
     20 H8          32.9770     8.5670    67.5960 ha         1 LZ5       0.112000
     21 H11         26.4450     5.0760    62.8990 ha         1 LZ5       0.165000
     22 H13         27.0120     2.4420    66.1390 hn         1 LZ5       0.375000
     23 H12         25.5290     2.7460    64.0150 h4         1 LZ5       0.160000
@<TRIPOS>BOND
     1     1     2 2   
     2     2     3 1   
     3     2    10 1   
     4     3     4 1   
     5     3    15 1   
     6     4     5 ar  
     7     4     9 ar  
     8     5     6 ar  
     9     5    16 1   
    10     6     7 ar  
    11     6    18 1   
    12     7     8 ar  
    13     7    19 1   
    14     8     9 ar  
    15     8    20 1   
    16     9    17 1   
    17    10    11 1   
    18    10    14 2   
    19    11    12 2   
    20    11    21 1   
    21    12    13 1   
    22    12    23 1   
    23    13    14 1   
    24    13    22 1   
@<TRIPOS>SUBSTRUCTURE
     1 LZ5         1 TEMP              0 ****  ****    0 ROOT
