@<TRIPOS>MOLECULE
LZ5
   23    24     1     0     0
SMALL
bcc


@<TRIPOS>ATOM
      1 O1          28.3150     7.1250    63.4740 o          1 LZ5      -0.578100
      2 C2          28.5840     6.3630    64.3870 c          1 LZ5       0.609600
      3 N3          29.5740     6.5490    65.2930 ns         1 LZ5      -0.462100
      4 C4          30.4790     7.6060    65.4130 ca         1 LZ5       0.076600
      5 C5          30.6230     8.6320    64.4760 ca         1 LZ5      -0.168500
      6 C6          31.5650     9.6290    64.6930 ca         1 LZ5      -0.102500
      7 C7          32.3690     9.6310    65.8230 ca         1 LZ5      -0.157000
      8 C8          32.2250     8.6080    66.7510 ca         1 LZ5      -0.102500
      9 C9          31.2910     7.6070    66.5510 ca         1 LZ5      -0.168500
     10 C10         27.8140     5.1170    64.5820 cc         1 LZ5       0.251800
     11 C11         26.7290     4.6730    63.8080 cc         1 LZ5      -0.244300
     12 C12         26.3750     3.4770    64.3840 cd         1 LZ5      -0.153300
     13 N13         27.2230     3.2880    65.4120 na         1 LZ5       0.015400
     14 N15         28.0980     4.2600    65.5510 nd         1 LZ5      -0.522800
     15 H3          29.6520     5.8330    66.0020 hn         1 LZ5       0.335500
     16 H5          30.0170     8.6610    63.5870 ha         1 LZ5       0.146000
     17 H9          31.1850     6.8160    67.2840 ha         1 LZ5       0.146000
     18 H6          31.6670    10.4160    63.9560 ha         1 LZ5       0.130000
     19 H7          33.0980    10.4150    65.9780 ha         1 LZ5       0.132000
     20 H8          32.8400     8.5880    67.6420 ha         1 LZ5       0.130000
     21 H11         26.2740     5.1540    62.9590 ha         1 LZ5       0.183000
     22 H13         27.2450     2.5010    66.0430 hn         1 LZ5       0.324700
     23 H12         25.6050     2.7640    64.1440 h4         1 LZ5       0.178000
@<TRIPOS>BOND
     1     1     2 2   
     2     2     3 1   
     3     2    10 1   
     4     3     4 1   
     5     3    15 1   
     6     4     5 ar  
     7     4     9 ar  
     8     5     6 ar  
     9     5    16 1   
    10     6     7 ar  
    11     6    18 1   
    12     7     8 ar  
    13     7    19 1   
    14     8     9 ar  
    15     8    20 1   
    16     9    17 1   
    17    10    11 1   
    18    10    14 2   
    19    11    12 2   
    20    11    21 1   
    21    12    13 1   
    22    12    23 1   
    23    13    14 1   
    24    13    22 1   
@<TRIPOS>SUBSTRUCTURE
     1 LZ5         1 TEMP              0 ****  ****    0 ROOT
