@<TRIPOS>MOLECULE
LZ6
   70    70     1     0     0
SMALL
abcg2


@<TRIPOS>ATOM
      1 O37         18.0370    16.2010     8.0930 o          1 LZ6      -0.735500
      2 C35         17.8010    15.4900     9.1040 c          1 LZ6       0.707000
      3 O36         18.0050    15.8160    10.3000 o          1 LZ6      -0.735500
      4 C34         17.2120    14.0850     8.8220 c3         1 LZ6       0.028500
      5 N38         17.2820    13.2270    10.0170 n8         1 LZ6      -1.000200
      6 C33         15.7450    14.1500     8.3670 c3         1 LZ6      -0.031400
      7 C32         15.5150    14.8060     7.0130 c3         1 LZ6      -0.146400
      8 C30         14.0700    14.7430     6.5580 c          1 LZ6       0.598100
      9 O31         13.1260    14.5650     7.3320 o          1 LZ6      -0.652100
     10 N29         13.8810    14.9210     5.2350 ns         1 LZ6      -0.500900
     11 C21         12.5780    14.9110     4.6120 c3         1 LZ6       0.046700
     12 C22         12.7700    14.6670     3.1090 c          1 LZ6       0.577100
     13 O28         13.8600    14.8670     2.5650 o          1 LZ6      -0.650100
     14 N23         11.6780    14.2620     2.4620 ns         1 LZ6      -0.462900
     15 C24         11.6230    13.9750     1.0440 c3         1 LZ6      -0.051000
     16 C25         10.3390    13.1910     0.6990 c          1 LZ6       0.709000
     17 O27          9.5520    12.9380     1.6440 o          1 LZ6      -0.736000
     18 O26         10.2070    12.8810    -0.5070 o          1 LZ6      -0.736000
     19 C20         11.7730    16.1940     4.8680 c3         1 LZ6       0.045600
     20 S13         12.5970    17.6620     4.1640 ss         1 LZ6      -0.398000
     21 C12         11.3700    18.9360     4.5930 c3         1 LZ6       0.026600
     22 C11         10.0790    18.8900     3.7730 c3         1 LZ6       0.240800
     23 N7          10.2700    19.0490     2.3430 nh         1 LZ6      -0.838400
     24 C8          10.1520    17.8630     1.5190 c3         1 LZ6       0.224800
     25 C9           8.7180    17.6780     1.0380 c3         1 LZ6       0.086600
     26 CL10         8.6040    16.2500    -0.0790 cl         1 LZ6      -0.257000
     27 C1          10.3760    20.3070     1.7690 ca         1 LZ6       0.337000
     28 C6          10.4340    20.4820     0.3720 ca         1 LZ6      -0.193000
     29 C5          10.5420    21.7470    -0.1890 ca         1 LZ6      -0.069500
     30 C4          10.5960    22.9020     0.5890 ca         1 LZ6      -0.119300
     31 C3          10.5430    22.7290     1.9720 ca         1 LZ6      -0.069500
     32 C2          10.4380    21.4740     2.5560 ca         1 LZ6      -0.193000
     33 C14         10.6480    24.2730    -0.0310 c3         1 LZ6      -0.028100
     34 C15          9.2600    24.9170    -0.1630 c3         1 LZ6      -0.057400
     35 C16          9.3070    26.3120    -0.7890 c3         1 LZ6      -0.195400
     36 C17          7.9130    26.9520    -0.9110 c          1 LZ6       0.706000
     37 O18          7.6910    28.0010    -0.2500 o          1 LZ6      -0.750500
     38 O19          7.0860    26.3730    -1.6660 o          1 LZ6      -0.750500
     39 H34         17.8050    13.6740     7.9950 h1         1 LZ6       0.000700
     40 HN38        17.3610    12.2560     9.7360 hn         1 LZ6       0.374000
     41 HN3A        18.1150    13.4630    10.5430 hn         1 LZ6       0.374000
     42 H33         15.3700    13.1230     8.3340 hc         1 LZ6       0.035200
     43 H33A        15.1630    14.6640     9.1360 hc         1 LZ6       0.035200
     44 H32         15.8070    15.8570     7.0500 hc         1 LZ6       0.074700
     45 H32A        16.1480    14.3470     6.2490 hc         1 LZ6       0.074700
     46 HN29        14.6690    15.0380     4.6140 hn         1 LZ6       0.345500
     47 H21         11.9930    14.0890     5.0300 h1         1 LZ6       0.074700
     48 HN23        10.8340    14.0070     2.9620 hn         1 LZ6       0.340500
     49 H24         11.6360    14.8980     0.4590 h1         1 LZ6       0.039700
     50 H24A        12.4910    13.3860     0.7430 h1         1 LZ6       0.039700
     51 H20         10.7840    16.0810     4.4260 h1         1 LZ6       0.065700
     52 H20A        11.6620    16.3330     5.9420 h1         1 LZ6       0.065700
     53 H12         11.1360    18.8570     5.6560 h1         1 LZ6       0.069700
     54 H12A        11.8910    19.8810     4.4360 h1         1 LZ6       0.069700
     55 H11          9.5710    17.9400     3.9390 h1         1 LZ6       0.040700
     56 H11A         9.4040    19.6620     4.1530 h1         1 LZ6       0.040700
     57 H8          10.8310    17.9180     0.6690 h1         1 LZ6       0.078200
     58 H8A         10.4570    16.9980     2.1040 h1         1 LZ6       0.078200
     59 H9           8.0430    17.4760     1.8650 h1         1 LZ6       0.058700
     60 H9A          8.3640    18.5360     0.4740 h1         1 LZ6       0.058700
     61 H6          10.3860    19.6320    -0.2920 ha         1 LZ6       0.106500
     62 H5          10.5780    21.8330    -1.2700 ha         1 LZ6       0.102500
     63 H3          10.5870    23.5980     2.6200 ha         1 LZ6       0.102500
     64 H2          10.4120    21.4110     3.6330 ha         1 LZ6       0.106500
     65 H14         11.2850    24.9280     0.5710 hc         1 LZ6       0.028700
     66 H14A        11.1040    24.2110    -1.0230 hc         1 LZ6       0.028700
     67 H15          8.6190    24.2700    -0.7660 hc         1 LZ6       0.041700
     68 H15A         8.8020    24.9760     0.8300 hc         1 LZ6       0.041700
     69 H16          9.9540    26.9610    -0.1950 hc         1 LZ6       0.014200
     70 H16A         9.7400    26.2370    -1.7920 hc         1 LZ6       0.014200
@<TRIPOS>BOND
     1     1     2 1   
     2     2     3 1   
     3     2     4 1   
     4     4     5 1   
     5     4     6 1   
     6     4    39 1   
     7     5    40 1   
     8     5    41 1   
     9     6     7 1   
    10     6    42 1   
    11     6    43 1   
    12     7     8 1   
    13     7    44 1   
    14     7    45 1   
    15     8     9 2   
    16     8    10 1   
    17    10    11 1   
    18    10    46 1   
    19    11    12 1   
    20    11    19 1   
    21    11    47 1   
    22    12    13 2   
    23    12    14 1   
    24    14    15 1   
    25    14    48 1   
    26    15    16 1   
    27    15    49 1   
    28    15    50 1   
    29    16    17 1   
    30    16    18 1   
    31    19    20 1   
    32    19    51 1   
    33    19    52 1   
    34    20    21 1   
    35    21    22 1   
    36    21    53 1   
    37    21    54 1   
    38    22    23 1   
    39    22    55 1   
    40    22    56 1   
    41    23    24 1   
    42    23    27 1   
    43    24    25 1   
    44    24    57 1   
    45    24    58 1   
    46    25    26 1   
    47    25    59 1   
    48    25    60 1   
    49    27    28 ar  
    50    27    32 ar  
    51    28    29 ar  
    52    28    61 1   
    53    29    30 ar  
    54    29    62 1   
    55    30    31 ar  
    56    30    33 1   
    57    31    32 ar  
    58    31    63 1   
    59    32    64 1   
    60    33    34 1   
    61    33    65 1   
    62    33    66 1   
    63    34    35 1   
    64    34    67 1   
    65    34    68 1   
    66    35    36 1   
    67    35    69 1   
    68    35    70 1   
    69    36    37 1   
    70    36    38 1   
@<TRIPOS>SUBSTRUCTURE
     1 LZ6         1 TEMP              0 ****  ****    0 ROOT
