@<TRIPOS>MOLECULE
LZ6
   70    70     1     0     0
SMALL
No Charge or Current Charge


@<TRIPOS>ATOM
      1 O37         18.7400    16.9580     8.6690 o          1 LZ6      -0.735500
      2 C35         18.0280    15.9840     8.8780 c          1 LZ6       0.707000
      3 O36         17.4910    15.7750     9.9590 o          1 LZ6      -0.735500
      4 C34         17.8500    14.9240     7.7030 c3         1 LZ6       0.028500
      5 N38         18.6890    13.6760     7.8010 n8         1 LZ6      -1.000200
      6 C33         16.3600    14.5440     7.4690 c3         1 LZ6      -0.031400
      7 C32         15.4500    15.7480     7.1210 c3         1 LZ6      -0.146400
      8 C30         14.0200    15.2950     6.8130 c          1 LZ6       0.598100
      9 O31         13.2380    14.9420     7.6850 o          1 LZ6      -0.652100
     10 N29         13.6650    15.3390     5.4860 ns         1 LZ6      -0.500900
     11 C21         12.3250    15.0080     4.9470 c3         1 LZ6       0.046700
     12 C22         12.3970    14.7600     3.4110 c          1 LZ6       0.577100
     13 O28         13.4170    14.9320     2.7490 o          1 LZ6      -0.650100
     14 N23         11.2310    14.3030     2.8310 ns         1 LZ6      -0.462900
     15 C24         11.0630    13.9910     1.3930 c3         1 LZ6      -0.051000
     16 C25          9.6850    13.3350     1.0940 c          1 LZ6       0.709000
     17 O27          8.7340    13.6240     1.8090 o          1 LZ6      -0.736000
     18 O26          9.6280    12.4970     0.2050 o          1 LZ6      -0.736000
     19 C20         11.2730    16.0870     5.3120 c3         1 LZ6       0.045600
     20 S13         11.7330    17.7530     4.6390 ss         1 LZ6      -0.398000
     21 C12         10.1500    18.6840     4.9290 c3         1 LZ6       0.026600
     22 C11          9.0420    18.3250     3.9050 c3         1 LZ6       0.240800
     23 N7           9.3740    18.6550     2.4940 nh         1 LZ6      -0.838400
     24 C8           9.5470    17.5210     1.5420 c3         1 LZ6       0.224800
     25 C9           8.9380    17.7690     0.1440 c3         1 LZ6       0.086600
     26 Cl10         9.1890    16.3510    -0.9670 cl         1 LZ6      -0.257000
     27 C1           9.7520    19.9720     2.1430 ca         1 LZ6       0.337000
     28 C6          10.9150    20.2150     1.3880 ca         1 LZ6      -0.193000
     29 C5          11.2860    21.5270     1.0460 ca         1 LZ6      -0.069500
     30 C4          10.4970    22.6170     1.4590 ca         1 LZ6      -0.119300
     31 C3           9.3350    22.3790     2.2150 ca         1 LZ6      -0.069500
     32 C2           8.9680    21.0650     2.5540 ca         1 LZ6      -0.193000
     33 C14         10.8940    24.0400     1.0890 c3         1 LZ6      -0.028100
     34 C15         10.2020    24.5180    -0.2060 c3         1 LZ6      -0.057400
     35 C16         10.5860    25.9640    -0.6080 c3         1 LZ6      -0.195400
     36 C17          9.8560    26.3680    -1.9020 c          1 LZ6       0.706000
     37 O18          8.7500    26.8790    -1.8060 o          1 LZ6      -0.750500
     38 O19         10.3930    26.1190    -2.9710 o          1 LZ6      -0.750500
     39 H34         18.1900    15.4250     6.7860 h1         1 LZ6       0.000700
     40 HN38        18.5890    13.1300     6.9370 hn         1 LZ6       0.374000
     41 HN3A        19.6820    13.9390     7.8130 hn         1 LZ6       0.374000
     42 H33         16.3020    13.8190     6.6470 hc         1 LZ6       0.035200
     43 H33A        15.9660    14.0400     8.3610 hc         1 LZ6       0.035200
     44 H32         15.4170    16.4300     7.9780 hc         1 LZ6       0.074700
     45 H32A        15.8730    16.2640     6.2510 hc         1 LZ6       0.074700
     46 HN29        14.3760    15.6400     4.8280 hn         1 LZ6       0.345500
     47 H21         12.0050    14.0590     5.3960 h1         1 LZ6       0.074700
     48 HN23        10.4290    14.1690     3.4370 hn         1 LZ6       0.340500
     49 H24         11.1430    14.9160     0.8090 h1         1 LZ6       0.039700
     50 H24A        11.8580    13.3030     1.0780 h1         1 LZ6       0.039700
     51 H20         10.2930    15.7940     4.9170 h1         1 LZ6       0.065700
     52 H20A        11.1820    16.1610     6.4030 h1         1 LZ6       0.065700
     53 H12          9.7900    18.4700     5.9440 h1         1 LZ6       0.069700
     54 H12A        10.3580    19.7600     4.8680 h1         1 LZ6       0.069700
     55 H11          8.8180    17.2550     4.0030 h1         1 LZ6       0.040700
     56 H11A         8.1230    18.8530     4.1920 h1         1 LZ6       0.040700
     57 H8          10.6150    17.2930     1.4290 h1         1 LZ6       0.078200
     58 H8A          9.0770    16.6130     1.9450 h1         1 LZ6       0.078200
     59 H9           7.8570    17.9390     0.2280 h1         1 LZ6       0.058700
     60 H9A          9.4020    18.6410    -0.3310 h1         1 LZ6       0.058700
     61 H6          11.5440    19.3900     1.0730 ha         1 LZ6       0.106500
     62 H5          12.1880    21.6960     0.4630 ha         1 LZ6       0.102500
     63 H3           8.7140    23.2120     2.5380 ha         1 LZ6       0.102500
     64 H2           8.0630    20.8990     3.1300 ha         1 LZ6       0.106500
     65 H14         10.6400    24.7240     1.9080 hc         1 LZ6       0.028700
     66 H14A        11.9820    24.1070     0.9610 hc         1 LZ6       0.028700
     67 H15         10.4610    23.8340    -1.0230 hc         1 LZ6       0.041700
     68 H15A         9.1140    24.4570    -0.0730 hc         1 LZ6       0.041700
     69 H16         10.2690    26.6020     0.2270 hc         1 LZ6       0.014200
     70 H16A        11.6720    25.9520    -0.7670 hc         1 LZ6       0.014200
@<TRIPOS>BOND
     1     1     2 1   
     2     2     3 1   
     3     2     4 1   
     4     4     5 1   
     5     4     6 1   
     6     4    39 1   
     7     5    40 1   
     8     5    41 1   
     9     6     7 1   
    10     6    42 1   
    11     6    43 1   
    12     7     8 1   
    13     7    44 1   
    14     7    45 1   
    15     8     9 2   
    16     8    10 1   
    17    10    11 1   
    18    10    46 1   
    19    11    12 1   
    20    11    19 1   
    21    11    47 1   
    22    12    13 2   
    23    12    14 1   
    24    14    15 1   
    25    14    48 1   
    26    15    16 1   
    27    15    49 1   
    28    15    50 1   
    29    16    17 1   
    30    16    18 1   
    31    19    20 1   
    32    19    51 1   
    33    19    52 1   
    34    20    21 1   
    35    21    22 1   
    36    21    53 1   
    37    21    54 1   
    38    22    23 1   
    39    22    55 1   
    40    22    56 1   
    41    23    24 1   
    42    23    27 1   
    43    24    25 1   
    44    24    57 1   
    45    24    58 1   
    46    25    26 1   
    47    25    59 1   
    48    25    60 1   
    49    27    28 ar  
    50    27    32 ar  
    51    28    29 ar  
    52    28    61 1   
    53    29    30 ar  
    54    29    62 1   
    55    30    31 ar  
    56    30    33 1   
    57    31    32 ar  
    58    31    63 1   
    59    32    64 1   
    60    33    34 1   
    61    33    65 1   
    62    33    66 1   
    63    34    35 1   
    64    34    67 1   
    65    34    68 1   
    66    35    36 1   
    67    35    69 1   
    68    35    70 1   
    69    36    37 1   
    70    36    38 1   
@<TRIPOS>SUBSTRUCTURE
     1 LZ6         1 TEMP              0 ****  ****    0 ROOT
