@<TRIPOS>MOLECULE
LZ7
   30    31     1     0     0
SMALL
abcg2


@<TRIPOS>ATOM
      1 C1          24.4120     5.7790    60.6980 c3         1 LZ7      -0.176100
      2 C2          24.8660     4.7930    61.7410 c          1 LZ7       0.608100
      3 O3          24.3360     3.7060    61.8980 o          1 LZ7      -0.601100
      4 N4          25.9280     5.1990    62.4770 ns         1 LZ7      -0.378100
      5 C5          26.5540     4.4550    63.4620 cc         1 LZ7       0.011600
      6 C6          26.2560     3.2020    63.9600 cd         1 LZ7      -0.199000
      7 N7          27.1860     2.9570    64.9060 na         1 LZ7       0.027800
      8 N9          28.0510     3.9250    65.0660 nd         1 LZ7      -0.511800
      9 C10         27.6930     4.8600    64.1960 cc         1 LZ7       0.141500
     10 C11         28.4320     6.1240    64.0560 c          1 LZ7       0.552600
     11 O12         28.0740     6.9700    63.2450 o          1 LZ7      -0.615100
     12 N13         29.4980     6.2420    64.8770 ns         1 LZ7      -0.125000
     13 C14         30.4190     7.2880    64.9860 ca         1 LZ7      -0.033000
     14 C15         31.4430     7.1240    65.9230 ca         1 LZ7      -0.124000
     15 C16         32.4100     8.0970    66.1050 ca         1 LZ7      -0.124500
     16 C17         32.3490     9.2450    65.3390 ca         1 LZ7       0.144000
     17 F18         33.2850    10.1950    65.5050 f          1 LZ7      -0.179000
     18 C19         31.3500     9.4360    64.4090 ca         1 LZ7      -0.124500
     19 C20         30.3800     8.4590    64.2280 ca         1 LZ7      -0.124000
     20 H1C1        24.7930     6.7860    60.8610 hc         1 LZ7       0.065367
     21 H1C2        24.7510     5.4440    59.7170 hc         1 LZ7       0.065367
     22 H1C3        23.3250     5.8140    60.6740 hc         1 LZ7       0.065367
     23 H4          26.3320     6.1070    62.3010 hn         1 LZ7       0.355500
     24 H6          25.4860     2.4900    63.7270 h4         1 LZ7       0.189000
     25 H7          27.2610     2.1210    65.4660 hn         1 LZ7       0.381000
     26 H13         29.6640     5.4560    65.4910 hn         1 LZ7       0.174000
     27 H15         31.4870     6.2210    66.5190 ha         1 LZ7       0.133500
     28 H20         29.6080     8.6250    63.4960 ha         1 LZ7       0.133500
     29 H16         33.1980     7.9570    66.8320 ha         1 LZ7       0.132500
     30 H19         31.3180    10.3430    63.8190 ha         1 LZ7       0.132500
@<TRIPOS>BOND
     1     1     2 1   
     2     1    20 1   
     3     1    21 1   
     4     1    22 1   
     5     2     3 2   
     6     2     4 1   
     7     4     5 1   
     8     4    23 1   
     9     5     6 2   
    10     5     9 1   
    11     6     7 1   
    12     6    24 1   
    13     7     8 1   
    14     7    25 1   
    15     8     9 2   
    16     9    10 1   
    17    10    11 2   
    18    10    12 1   
    19    12    13 1   
    20    12    26 1   
    21    13    14 ar  
    22    13    19 ar  
    23    14    15 ar  
    24    14    27 1   
    25    15    16 ar  
    26    15    29 1   
    27    16    17 1   
    28    16    18 ar  
    29    18    19 ar  
    30    18    30 1   
    31    19    28 1   
@<TRIPOS>SUBSTRUCTURE
     1 LZ7         1 TEMP              0 ****  ****    0 ROOT
