@<TRIPOS>MOLECULE
LZ7
   30    31     1     0     0
SMALL
No Charge or Current Charge


@<TRIPOS>ATOM
      1 C1          24.4170     5.8420    60.7320 c3         1 LZ7      -0.176100
      2 C2          24.8120     4.7800    61.7510 c          1 LZ7       0.608100
      3 O3          24.1790     3.7400    61.8770 o          1 LZ7      -0.601100
      4 N4          25.9270     5.0980    62.5000 ns         1 LZ7      -0.378100
      5 C5          26.5570     4.3670    63.5070 cc         1 LZ7       0.011600
      6 C6          26.1900     3.1430    63.9790 cd         1 LZ7      -0.199000
      7 N7          27.1280     2.8420    64.9740 na         1 LZ7       0.027800
      8 N9          28.0760     3.8520    65.1360 nd         1 LZ7      -0.511800
      9 C10         27.7050     4.7590    64.2370 cc         1 LZ7       0.141500
     10 C11         28.3970     6.0700    63.9870 c          1 LZ7       0.552600
     11 O12         28.0300     6.8910    63.1460 o          1 LZ7      -0.615100
     12 N13         29.5000     6.2480    64.8150 ns         1 LZ7      -0.125000
     13 C14         30.4480     7.3020    64.9490 ca         1 LZ7      -0.033000
     14 C15         31.4620     7.1450    65.9150 ca         1 LZ7      -0.124000
     15 C16         32.4340     8.1440    66.1050 ca         1 LZ7      -0.124500
     16 C17         32.3960     9.3100    65.3270 ca         1 LZ7       0.144000
     17 F18         33.3290    10.2710    65.5070 f          1 LZ7      -0.179000
     18 C19         31.3930     9.4820    64.3620 ca         1 LZ7      -0.124500
     19 C20         30.4200     8.4830    64.1710 ca         1 LZ7      -0.124000
     20 H1C1        24.2770     6.7990    61.2480 hc         1 LZ7       0.065367
     21 H1C2        25.2740     6.0500    60.0810 hc         1 LZ7       0.065367
     22 H1C3        23.5300     5.5620    60.1530 hc         1 LZ7       0.065367
     23 H4          26.3360     5.9990    62.2700 hn         1 LZ7       0.355500
     24 H6          25.3760     2.4780    63.7110 h4         1 LZ7       0.189000
     25 H7          27.1540     1.9930    65.5410 hn         1 LZ7       0.381000
     26 H13         29.6560     5.4720    65.4460 hn         1 LZ7       0.174000
     27 H15         31.5000     6.2430    66.5240 ha         1 LZ7       0.133500
     28 H20         29.6580     8.6480    63.4160 ha         1 LZ7       0.133500
     29 H16         33.2140     8.0160    66.8510 ha         1 LZ7       0.132500
     30 H19         31.3700    10.3890    63.7620 ha         1 LZ7       0.132500
@<TRIPOS>BOND
     1     1     2 1   
     2     1    20 1   
     3     1    21 1   
     4     1    22 1   
     5     2     3 2   
     6     2     4 1   
     7     4     5 1   
     8     4    23 1   
     9     5     6 2   
    10     5     9 1   
    11     6     7 1   
    12     6    24 1   
    13     7     8 1   
    14     7    25 1   
    15     8     9 2   
    16     9    10 1   
    17    10    11 2   
    18    10    12 1   
    19    12    13 1   
    20    12    26 1   
    21    13    14 ar  
    22    13    19 ar  
    23    14    15 ar  
    24    14    27 1   
    25    15    16 ar  
    26    15    29 1   
    27    16    17 1   
    28    16    18 ar  
    29    18    19 ar  
    30    18    30 1   
    31    19    28 1   
@<TRIPOS>SUBSTRUCTURE
     1 LZ7         1 TEMP              0 ****  ****    0 ROOT
