@<TRIPOS>MOLECULE
LZ8
   37    39     1     0     0
SMALL
abcg2


@<TRIPOS>ATOM
      1 F1           6.8750    -2.0950    -0.1530 f          1 LZ8      -0.179000
      2 C2           5.7470    -1.3670    -0.1240 ca         1 LZ8       0.144000
      3 C3           4.5300    -2.0090    -0.0340 ca         1 LZ8      -0.125000
      4 C4           3.3580    -1.2640    -0.0060 ca         1 LZ8      -0.123500
      5 C5           3.4150     0.1290    -0.0690 ca         1 LZ8      -0.033000
      6 N6           2.2990     0.9710    -0.0490 ns         1 LZ8      -0.124000
      7 C7           0.9880     0.6540    -0.0020 c          1 LZ8       0.552600
      8 O8           0.5400    -0.4860     0.0380 o          1 LZ8      -0.616100
      9 C9           0.0830     1.8140    -0.0060 cc         1 LZ8       0.141500
     10 N10          0.5300     3.0610    -0.0340 nd         1 LZ8      -0.511800
     11 N11         -0.5410     3.8120    -0.0310 na         1 LZ8       0.027800
     12 C12         -1.6980     3.1180    -0.0030 cd         1 LZ8      -0.197000
     13 C13         -1.3300     1.7880     0.0150 cc         1 LZ8       0.010600
     14 N14         -2.1020     0.6390     0.0490 ns         1 LZ8      -0.372100
     15 C15         -3.4540     0.6130     0.0210 c          1 LZ8       0.621700
     16 O16         -4.1280     1.6260    -0.0640 o          1 LZ8      -0.599100
     17 C17         -4.0730    -0.7430     0.0840 ca         1 LZ8      -0.152600
     18 C18         -5.3460    -0.9050    -0.4600 ca         1 LZ8      -0.067500
     19 C20         -5.9690    -2.1420    -0.4270 ca         1 LZ8      -0.120500
     20 C21         -5.3350    -3.2260     0.1680 ca         1 LZ8      -0.086000
     21 C22         -4.0750    -3.0670     0.7290 ca         1 LZ8      -0.120500
     22 C23         -3.4450    -1.8320     0.6860 ca         1 LZ8      -0.067500
     23 C25          4.6630     0.7510    -0.1580 ca         1 LZ8      -0.123500
     24 C26          5.8320     0.0110    -0.1860 ca         1 LZ8      -0.125000
     25 H3           4.4810    -3.0880     0.0140 ha         1 LZ8       0.132500
     26 H26          6.7920     0.5040    -0.2560 ha         1 LZ8       0.132500
     27 H4           2.4170    -1.7830     0.0670 ha         1 LZ8       0.133500
     28 H6           2.5020     1.9610    -0.0880 hn         1 LZ8       0.175000
     29 H25          4.7260     1.8310    -0.2050 ha         1 LZ8       0.133500
     30 H12         -2.6520     3.6110    -0.0000 h4         1 LZ8       0.190000
     31 H18         -5.8450    -0.0630    -0.9220 ha         1 LZ8       0.127000
     32 H23         -2.4750    -1.7300     1.1560 ha         1 LZ8       0.127000
     33 H20         -6.9510    -2.2610    -0.8650 ha         1 LZ8       0.118000
     34 H21         -5.8230    -4.1910     0.1960 ha         1 LZ8       0.115000
     35 H22         -3.5840    -3.9030     1.2080 ha         1 LZ8       0.118000
     36 H11         -0.4490     4.8160    -0.0500 hn         1 LZ8       0.381000
     37 H14         -1.5730    -0.2210     0.0230 hn         1 LZ8       0.360500
@<TRIPOS>BOND
     1     1     2 1   
     2     2     3 ar  
     3     2    24 ar  
     4     3     4 ar  
     5     3    25 1   
     6     4     5 ar  
     7     4    27 1   
     8     5     6 1   
     9     5    23 ar  
    10     6     7 1   
    11     6    28 1   
    12     7     8 2   
    13     7     9 1   
    14     9    10 2   
    15     9    13 1   
    16    10    11 1   
    17    11    12 1   
    18    11    36 1   
    19    12    13 2   
    20    12    30 1   
    21    13    14 1   
    22    14    15 1   
    23    14    37 1   
    24    15    16 2   
    25    15    17 1   
    26    17    18 ar  
    27    17    22 ar  
    28    18    19 ar  
    29    18    31 1   
    30    19    20 ar  
    31    19    33 1   
    32    20    21 ar  
    33    20    34 1   
    34    21    22 ar  
    35    21    35 1   
    36    22    32 1   
    37    23    24 ar  
    38    23    29 1   
    39    24    26 1   
@<TRIPOS>SUBSTRUCTURE
     1 LZ8         1 TEMP              0 ****  ****    0 ROOT
