@<TRIPOS>MOLECULE
LZ8
   37    39     1     0     0
SMALL
No Charge or Current Charge


@<TRIPOS>ATOM
      1 F1           6.8710    -2.2320     0.1060 f          1 LZ8      -0.179000
      2 C2           5.7480    -1.4810     0.0700 ca         1 LZ8       0.144000
      3 C3           4.4910    -2.1020     0.0990 ca         1 LZ8      -0.125000
      4 C4           3.3190    -1.3230     0.0630 ca         1 LZ8      -0.123500
      5 C5           3.4020     0.0880    -0.0030 ca         1 LZ8      -0.033000
      6 N6           2.2650     0.9420    -0.0430 ns         1 LZ8      -0.124000
      7 C7           0.8960     0.6930    -0.0310 c          1 LZ8       0.552600
      8 O8           0.4030    -0.4340     0.0220 o          1 LZ8      -0.616100
      9 C9           0.0870     1.9580    -0.0900 cc         1 LZ8       0.141500
     10 N10          0.5830     3.1900    -0.1480 nd         1 LZ8      -0.511800
     11 N11         -0.5590     3.9890    -0.1850 na         1 LZ8       0.027800
     12 C12         -1.7400     3.2360    -0.1500 cd         1 LZ8      -0.197000
     13 C13         -1.3290     1.9380    -0.0890 cc         1 LZ8       0.010600
     14 N14         -2.1340     0.8020    -0.0360 ns         1 LZ8      -0.372100
     15 C15         -3.5130     0.6950    -0.0310 c          1 LZ8       0.621700
     16 O16         -4.2460     1.6760    -0.0770 o          1 LZ8      -0.599100
     17 C17         -4.0770    -0.7140     0.0340 ca         1 LZ8      -0.152600
     18 C18         -5.4800    -0.8960     0.0430 ca         1 LZ8      -0.067500
     19 C20         -6.0400    -2.1840     0.1030 ca         1 LZ8      -0.120500
     20 C21         -5.2090    -3.3120     0.1550 ca         1 LZ8      -0.086000
     21 C22         -3.8150    -3.1510     0.1480 ca         1 LZ8      -0.120500
     22 C23         -3.2490    -1.8650     0.0880 ca         1 LZ8      -0.067500
     23 C25          4.6740     0.6960    -0.0310 ca         1 LZ8      -0.123500
     24 C26          5.8430    -0.0840     0.0060 ca         1 LZ8      -0.125000
     25 H3           4.4250    -3.1860     0.1490 ha         1 LZ8       0.132500
     26 H26          6.8210     0.3920    -0.0160 ha         1 LZ8       0.132500
     27 H4           2.3630    -1.8350     0.0860 ha         1 LZ8       0.133500
     28 H6           2.4920     1.9280    -0.0890 hn         1 LZ8       0.175000
     29 H25          4.7580     1.7800    -0.0810 ha         1 LZ8       0.133500
     30 H12         -2.7280     3.6820    -0.1700 h4         1 LZ8       0.190000
     31 H18         -6.1470    -0.0370     0.0030 ha         1 LZ8       0.127000
     32 H23         -2.1640    -1.7900     0.0850 ha         1 LZ8       0.127000
     33 H20         -7.1210    -2.3060     0.1080 ha         1 LZ8       0.118000
     34 H21         -5.6430    -4.3090     0.2020 ha         1 LZ8       0.115000
     35 H22         -3.1700    -4.0260     0.1880 ha         1 LZ8       0.118000
     36 H11         -0.4950     5.0060    -0.2320 hn         1 LZ8       0.381000
     37 H14         -1.6500    -0.0880     0.0050 hn         1 LZ8       0.360500
@<TRIPOS>BOND
     1     1     2 1   
     2     2     3 ar  
     3     2    24 ar  
     4     3     4 ar  
     5     3    25 1   
     6     4     5 ar  
     7     4    27 1   
     8     5     6 1   
     9     5    23 ar  
    10     6     7 1   
    11     6    28 1   
    12     7     8 2   
    13     7     9 1   
    14     9    10 2   
    15     9    13 1   
    16    10    11 1   
    17    11    12 1   
    18    11    36 1   
    19    12    13 2   
    20    12    30 1   
    21    13    14 1   
    22    14    15 1   
    23    14    37 1   
    24    15    16 2   
    25    15    17 1   
    26    17    18 ar  
    27    17    22 ar  
    28    18    19 ar  
    29    18    31 1   
    30    19    20 ar  
    31    19    33 1   
    32    20    21 ar  
    33    20    34 1   
    34    21    22 ar  
    35    21    35 1   
    36    22    32 1   
    37    23    24 ar  
    38    23    29 1   
    39    24    26 1   
@<TRIPOS>SUBSTRUCTURE
     1 LZ8         1 TEMP              0 ****  ****    0 ROOT
