@<TRIPOS>MOLECULE
LZ9
   37    39     1     0     0
SMALL
No Charge or Current Charge


@<TRIPOS>ATOM
      1 F1          33.9150    10.2100    66.2060 f          1 LZ9      -0.179000
      2 C2          32.9260     9.3190    65.9710 ca         1 LZ9       0.144000
      3 C3          32.8930     8.1090    66.6790 ca         1 LZ9      -0.124500
      4 C4          31.8640     7.1830    66.4330 ca         1 LZ9      -0.123000
      5 C5          30.8610     7.4580    65.4810 ca         1 LZ9      -0.033000
      6 N6          29.8530     6.4720    65.2870 ns         1 LZ9      -0.125000
      7 C7          28.7280     6.4210    64.4700 c          1 LZ9       0.552600
      8 O8          28.3920     7.3260    63.7080 o          1 LZ9      -0.612100
      9 C9          27.9690     5.1340    64.6270 cc         1 LZ9       0.146500
     10 N10         28.2980     4.1420    65.4490 nd         1 LZ9      -0.509800
     11 N11         27.2910     3.2030    65.2280 na         1 LZ9       0.027800
     12 C12         26.3590     3.6310    64.2750 cd         1 LZ9      -0.195000
     13 C13         26.7910     4.8640    63.8870 cc         1 LZ9       0.007600
     14 N14         26.1980     5.7030    62.9440 ns         1 LZ9      -0.361100
     15 C15         25.0380     5.5290    62.2120 c          1 LZ9       0.637700
     16 O16         24.3430     4.5280    62.3260 o          1 LZ9      -0.573100
     17 C17         24.6950     6.6250    61.2360 ca         1 LZ9      -0.246600
     18 C18         23.3430     6.9000    60.9270 ca         1 LZ9       0.237000
     19 F19         22.3370     6.2250    61.5270 f          1 LZ9      -0.160500
     20 C20         23.0000     7.9140    60.0180 ca         1 LZ9      -0.175000
     21 C21         23.9970     8.6720    59.3900 ca         1 LZ9      -0.040000
     22 C22         25.3430     8.4060    59.6780 ca         1 LZ9      -0.175000
     23 C23         25.6900     7.3950    60.5880 ca         1 LZ9       0.237000
     24 F24         27.0040     7.1560    60.7890 f          1 LZ9      -0.160500
     25 C25         30.9060     8.6810    64.7730 ca         1 LZ9      -0.123000
     26 C26         31.9370     9.6070    65.0200 ca         1 LZ9      -0.124500
     27 H3          33.6630     7.8910    67.4150 ha         1 LZ9       0.132500
     28 H26         31.9700    10.5470    64.4740 ha         1 LZ9       0.132500
     29 H4          31.8470     6.2460    66.9880 ha         1 LZ9       0.134000
     30 H6          29.9750     5.6410    65.8530 hn         1 LZ9       0.174000
     31 H25         30.1580     8.9340    64.0280 ha         1 LZ9       0.134000
     32 H12         25.5070     3.0340    63.9710 h4         1 LZ9       0.190000
     33 H20         21.9520     8.1130    59.8060 ha         1 LZ9       0.142000
     34 H21         23.7300     9.4570    58.6850 ha         1 LZ9       0.125000
     35 H22         26.1260     8.9800    59.1880 ha         1 LZ9       0.142000
     36 H11         27.2750     2.3140    65.7300 hn         1 LZ9       0.382000
     37 H14         26.6760     6.5790    62.7510 hn         1 LZ9       0.363500
@<TRIPOS>BOND
     1     1     2 1   
     2     2     3 ar  
     3     2    26 ar  
     4     3     4 ar  
     5     3    27 1   
     6     4     5 ar  
     7     4    29 1   
     8     5     6 1   
     9     5    25 ar  
    10     6     7 1   
    11     6    30 1   
    12     7     8 2   
    13     7     9 1   
    14     9    10 2   
    15     9    13 1   
    16    10    11 1   
    17    11    12 1   
    18    11    36 1   
    19    12    13 2   
    20    12    32 1   
    21    13    14 1   
    22    14    15 1   
    23    14    37 1   
    24    15    16 2   
    25    15    17 1   
    26    17    18 ar  
    27    17    23 ar  
    28    18    19 1   
    29    18    20 ar  
    30    20    21 ar  
    31    20    33 1   
    32    21    22 ar  
    33    21    34 1   
    34    22    23 ar  
    35    22    35 1   
    36    23    24 1   
    37    25    26 ar  
    38    25    31 1   
    39    26    28 1   
@<TRIPOS>SUBSTRUCTURE
     1 LZ9         1 TEMP              0 ****  ****    0 ROOT
