@<TRIPOS>MOLECULE
LZ9
   37    39     1     0     0
SMALL
abcg2


@<TRIPOS>ATOM
      1 F1          33.7300    10.2270    66.3970 f          1 LZ9      -0.179000
      2 C2          32.7710     9.3250    66.1270 ca         1 LZ9       0.144000
      3 C3          32.7860     8.1090    66.7830 ca         1 LZ9      -0.124500
      4 C4          31.7940     7.1880    66.4980 ca         1 LZ9      -0.123000
      5 C5          30.7920     7.4700    65.5680 ca         1 LZ9      -0.033000
      6 N6          29.8390     6.4690    65.3530 ns         1 LZ9      -0.125000
      7 C7          28.7830     6.4620    64.5130 c          1 LZ9       0.552600
      8 O8          28.4670     7.3830    63.7700 o          1 LZ9      -0.612100
      9 C9          27.9910     5.2210    64.5400 cc         1 LZ9       0.146500
     10 N10         28.2980     4.1980    65.3240 nd         1 LZ9      -0.509800
     11 N11         27.3900     3.2890    65.0770 na         1 LZ9       0.027800
     12 C12         26.4790     3.6590    64.1540 cd         1 LZ9      -0.195000
     13 C13         26.8410     4.9340    63.7710 cc         1 LZ9       0.007600
     14 N14         26.2620     5.7930    62.8500 ns         1 LZ9      -0.361100
     15 C15         25.1630     5.5210    62.1230 c          1 LZ9       0.637700
     16 O16         24.5250     4.4890    62.2100 o          1 LZ9      -0.573100
     17 C17         24.7750     6.6140    61.1750 ca         1 LZ9      -0.246600
     18 C18         23.5910     7.3160    61.3400 ca         1 LZ9       0.237000
     19 F19         22.8490     7.0440    62.4170 f          1 LZ9      -0.160500
     20 C20         23.1710     8.2880    60.4550 ca         1 LZ9      -0.175000
     21 C21         23.9660     8.5580    59.3500 ca         1 LZ9      -0.040000
     22 C22         25.1550     7.8760    59.1360 ca         1 LZ9      -0.175000
     23 C23         25.5320     6.9190    60.0550 ca         1 LZ9       0.237000
     24 F24         26.6690     6.2390    59.8640 f          1 LZ9      -0.160500
     25 C25         30.7990     8.7060    64.9200 ca         1 LZ9      -0.123000
     26 C26         31.7940     9.6320    65.2040 ca         1 LZ9      -0.124500
     27 H3          33.5590     7.8790    67.5050 ha         1 LZ9       0.132500
     28 H26         31.7970    10.5900    64.7010 ha         1 LZ9       0.132500
     29 H4          31.8020     6.2330    67.0100 ha         1 LZ9       0.134000
     30 H6          29.9630     5.6290    65.9010 hn         1 LZ9       0.174000
     31 H25         30.0420     8.9620    64.1980 ha         1 LZ9       0.134000
     32 H12         25.6800     3.0080    63.8540 h4         1 LZ9       0.190000
     33 H20         22.2460     8.8210    60.6260 ha         1 LZ9       0.142000
     34 H21         23.6510     9.3130    58.6420 ha         1 LZ9       0.125000
     35 H22         25.7740     8.0810    58.2730 ha         1 LZ9       0.142000
     36 H11         27.4170     2.4070    65.5650 hn         1 LZ9       0.382000
     37 H14         26.7070     6.6970    62.7640 hn         1 LZ9       0.363500
@<TRIPOS>BOND
     1     1     2 1   
     2     2     3 ar  
     3     2    26 ar  
     4     3     4 ar  
     5     3    27 1   
     6     4     5 ar  
     7     4    29 1   
     8     5     6 1   
     9     5    25 ar  
    10     6     7 1   
    11     6    30 1   
    12     7     8 2   
    13     7     9 1   
    14     9    10 2   
    15     9    13 1   
    16    10    11 1   
    17    11    12 1   
    18    11    36 1   
    19    12    13 2   
    20    12    32 1   
    21    13    14 1   
    22    14    15 1   
    23    14    37 1   
    24    15    16 2   
    25    15    17 1   
    26    17    18 ar  
    27    17    23 ar  
    28    18    19 1   
    29    18    20 ar  
    30    20    21 ar  
    31    20    33 1   
    32    21    22 ar  
    33    21    34 1   
    34    22    23 ar  
    35    22    35 1   
    36    23    24 1   
    37    25    26 ar  
    38    25    31 1   
    39    26    28 1   
@<TRIPOS>SUBSTRUCTURE
     1 LZ9         1 TEMP              0 ****  ****    0 ROOT
