@<TRIPOS>MOLECULE
LZA
   42    44     1     0     0
SMALL
No Charge or Current Charge


@<TRIPOS>ATOM
      1 C26         32.1760     9.2700    67.2030 c6         1 LZA       0.161300
      2 C25         31.2380     8.0490    67.0590 c6         1 LZA      -0.092900
      3 C5          30.5310     8.0540    65.6810 c6         1 LZA       0.112700
      4 N6          29.6920     6.8600    65.5310 ns         1 LZA      -0.479900
      5 C7          28.6150     6.7270    64.6790 c          1 LZA       0.542600
      6 O8          28.2470     7.6510    63.9590 o          1 LZA      -0.639100
      7 C9          27.9690     5.3710    64.7390 cc         1 LZA       0.152500
      8 N10         28.3530     4.3710    65.5260 nd         1 LZA      -0.507800
      9 N11         27.4440     3.3610    65.2140 na         1 LZA       0.021800
     10 C12         26.5170     3.7560    64.2410 cd         1 LZA      -0.196000
     11 C13         26.8530     5.0400    63.9350 cc         1 LZA       0.001600
     12 N14         26.2320     5.8770    63.0090 ns         1 LZA      -0.361100
     13 C15         25.1220     5.6470    62.2170 c          1 LZA       0.636700
     14 O16         24.5100     4.5890    62.2490 o          1 LZA      -0.577100
     15 C17         24.7310     6.7620    61.2800 ca         1 LZA      -0.243600
     16 C18         25.6860     7.6390    60.7130 ca         1 LZA       0.237000
     17 F19         27.0060     7.4920    60.9580 f          1 LZA      -0.159500
     18 C20         25.2940     8.6650    59.8380 ca         1 LZA      -0.177500
     19 C21         23.9440     8.8400    59.5070 ca         1 LZA      -0.041000
     20 C22         22.9860     7.9760    60.0560 ca         1 LZA      -0.177500
     21 C23         23.3740     6.9460    60.9280 ca         1 LZA       0.237000
     22 F24         22.4030     6.1650    61.4530 f          1 LZA      -0.159500
     23 C4          31.6010     8.1220    64.5620 c6         1 LZA      -0.092900
     24 N24         33.1650     9.3140    66.1010 n7         1 LZA      -0.864400
     25 C3          32.5330     9.3400    64.7610 c6         1 LZA       0.161300
     26 H261        31.5790    10.1950    67.1980 h1         1 LZA       0.032200
     27 H262        32.7030     9.2190    68.1680 h1         1 LZA       0.032200
     28 H251        31.8190     7.1250    67.1830 hc         1 LZA       0.054950
     29 H252        30.4910     8.0630    67.8640 hc         1 LZA       0.054950
     30 H24         33.7480    10.1550    66.2100 hn         1 LZA       0.413000
     31 H5          29.8880     8.9450    65.6170 h1         1 LZA       0.071700
     32 H6          29.9110     6.0380    66.0830 hn         1 LZA       0.332500
     33 H4C1        32.1980     7.2000    64.5550 hc         1 LZA       0.054950
     34 H4C2        31.1150     8.1890    63.5800 hc         1 LZA       0.054950
     35 H11         27.4870     2.4480    65.6700 hn         1 LZA       0.379000
     36 H12         25.7350     3.1030    63.8690 h4         1 LZA       0.187000
     37 H14         26.6430     6.7980    62.8840 hn         1 LZA       0.367500
     38 H20         26.0470     9.3220    59.4100 ha         1 LZA       0.141000
     39 H21         23.6420     9.6370    58.8300 ha         1 LZA       0.124000
     40 H22         21.9350     8.1040    59.8090 ha         1 LZA       0.141000
     41 H3C1        33.3140     9.3380    63.9860 h1         1 LZA       0.032200
     42 H3C2        31.9530    10.2680    64.6470 h1         1 LZA       0.032200
@<TRIPOS>BOND
     1     1     2 1   
     2     1    24 1   
     3     1    26 1   
     4     1    27 1   
     5     2     3 1   
     6     2    28 1   
     7     2    29 1   
     8     3     4 1   
     9     3    23 1   
    10     3    31 1   
    11     4     5 1   
    12     4    32 1   
    13     5     6 2   
    14     5     7 1   
    15     7     8 2   
    16     7    11 1   
    17     8     9 1   
    18     9    10 1   
    19     9    35 1   
    20    10    11 2   
    21    10    36 1   
    22    11    12 1   
    23    12    13 1   
    24    12    37 1   
    25    13    14 2   
    26    13    15 1   
    27    15    16 ar  
    28    15    21 ar  
    29    16    17 1   
    30    16    18 ar  
    31    18    19 ar  
    32    18    38 1   
    33    19    20 ar  
    34    19    39 1   
    35    20    21 ar  
    36    20    40 1   
    37    21    22 1   
    38    23    25 1   
    39    23    33 1   
    40    23    34 1   
    41    24    25 1   
    42    24    30 1   
    43    25    41 1   
    44    25    42 1   
@<TRIPOS>SUBSTRUCTURE
     1 LZA         1 TEMP              0 ****  ****    0 ROOT
