@<TRIPOS>MOLECULE
LZA
   42    44     1     0     0
SMALL
bcc


@<TRIPOS>ATOM
      1 C26         32.0630     9.2670    67.2510 c6         1 LZA       0.161300
      2 C25         31.1400     8.0630    67.1140 c6         1 LZA      -0.092900
      3 C5          30.5030     8.0420    65.7280 c6         1 LZA       0.112700
      4 N6          29.6770     6.8600    65.5810 ns         1 LZA      -0.546900
      5 C7          28.6410     6.7760    64.7420 c          1 LZA       0.609600
      6 O8          28.2290     7.7140    64.0580 o          1 LZA      -0.639100
      7 C9          27.9770     5.4610    64.6650 cc         1 LZA       0.217800
      8 N10         28.3560     4.4210    65.3930 nd         1 LZA      -0.507800
      9 N11         27.5500     3.4460    65.0490 na         1 LZA       0.021400
     10 C12         26.6400     3.7900    64.1160 cd         1 LZA      -0.163300
     11 C13         26.8880     5.1170    63.8340 cc         1 LZA      -0.063700
     12 N14         26.2640     5.9830    62.9500 ns         1 LZA      -0.428100
     13 C15         25.2560     5.6530    62.1220 c          1 LZA       0.703700
     14 O16         24.7360     4.5540    62.0860 o          1 LZA      -0.577100
     15 C17         24.8060     6.7690    61.2290 ca         1 LZA      -0.243600
     16 C18         25.6240     7.3070    60.2470 ca         1 LZA       0.201900
     17 F19         26.8740     6.8400    60.1450 f          1 LZA      -0.124400
     18 C20         25.1980     8.2870    59.3730 ca         1 LZA      -0.195500
     19 C21         23.8960     8.7500    59.4900 ca         1 LZA      -0.059000
     20 C22         23.0380     8.2420    60.4560 ca         1 LZA      -0.195500
     21 C23         23.5100     7.2580    61.2990 ca         1 LZA       0.201900
     22 F24         22.7030     6.7620    62.2410 f          1 LZA      -0.124400
     23 C4          31.5830     8.1230    64.6490 c6         1 LZA      -0.092900
     24 N24         33.0740     9.2410    66.2110 n7         1 LZA      -0.809200
     25 C3          32.4800     9.3280    64.8890 c6         1 LZA       0.161300
     26 H261        31.4520    10.1850    67.2240 h1         1 LZA       0.032200
     27 H262        32.5540     9.2440    68.2260 h1         1 LZA       0.032200
     28 H251        31.7180     7.1460    67.2670 hc         1 LZA       0.054950
     29 H252        30.3670     8.0980    67.8850 hc         1 LZA       0.054950
     30 H24         33.7160    10.0110    66.3450 hn         1 LZA       0.357800
     31 H5          29.8530     8.9170    65.6370 h1         1 LZA       0.071700
     32 H6          29.9700     6.0170    66.0530 hn         1 LZA       0.332500
     33 H4C1        32.1840     7.2090    64.6730 hc         1 LZA       0.054950
     34 H4C2        31.1230     8.1890    63.6610 hc         1 LZA       0.054950
     35 H11         27.6480     2.5400    65.4800 hn         1 LZA       0.328700
     36 H12         25.9170     3.0880    63.7430 h4         1 LZA       0.205000
     37 H14         26.6260     6.9290    62.9600 hn         1 LZA       0.367500
     38 H20         25.8680     8.6770    58.6200 ha         1 LZA       0.159000
     39 H21         23.5430     9.5200    58.8180 ha         1 LZA       0.142000
     40 H22         22.0230     8.6040    60.5540 ha         1 LZA       0.159000
     41 H3C1        33.2760     9.3530    64.1420 h1         1 LZA       0.032200
     42 H3C2        31.8860    10.2480    64.7530 h1         1 LZA       0.032200
@<TRIPOS>BOND
     1     1     2 1   
     2     1    24 1   
     3     1    26 1   
     4     1    27 1   
     5     2     3 1   
     6     2    28 1   
     7     2    29 1   
     8     3     4 1   
     9     3    23 1   
    10     3    31 1   
    11     4     5 1   
    12     4    32 1   
    13     5     6 2   
    14     5     7 1   
    15     7     8 2   
    16     7    11 1   
    17     8     9 1   
    18     9    10 1   
    19     9    35 1   
    20    10    11 2   
    21    10    36 1   
    22    11    12 1   
    23    12    13 1   
    24    12    37 1   
    25    13    14 2   
    26    13    15 1   
    27    15    16 ar  
    28    15    21 ar  
    29    16    17 1   
    30    16    18 ar  
    31    18    19 ar  
    32    18    38 1   
    33    19    20 ar  
    34    19    39 1   
    35    20    21 ar  
    36    20    40 1   
    37    21    22 1   
    38    23    25 1   
    39    23    33 1   
    40    23    34 1   
    41    24    25 1   
    42    24    30 1   
    43    25    41 1   
    44    25    42 1   
@<TRIPOS>SUBSTRUCTURE
     1 LZA         1 TEMP              0 ****  ****    0 ROOT
