@<TRIPOS>MOLECULE
LZB
   26    27     1     0     0
SMALL
bcc


@<TRIPOS>ATOM
      1 C1          31.3630     7.9330    66.5020 c3         1 LZB      -0.113600
      2 C2          30.6370     8.1140    65.1790 c3         1 LZB       0.241500
      3 C3          31.6040     8.3150    64.0190 c3         1 LZB      -0.113600
      4 N4          29.7860     6.9490    64.9520 nu         1 LZB      -0.750600
      5 C5          28.6970     6.9510    64.2070 cc         1 LZB       0.339300
      6 C6          28.0980     8.0460    63.5850 cd         1 LZB      -0.426300
      7 C7          26.9350     7.8250    62.8560 cd         1 LZB       0.597300
      8 CL8         26.2030     9.1920    62.0960 cl         1 LZB      -0.143000
      9 N9          26.3290     6.6790    62.6780 nc         1 LZB      -0.683000
     10 C10         26.9120     5.6440    63.2720 cc         1 LZB       0.481500
     11 C11         26.5960     4.2850    63.3270 cd         1 LZB      -0.228300
     12 C12         25.4990     3.6590    62.7140 ch         1 LZB       0.252500
     13 N13         24.5980     3.1420    62.2090 n1         1 LZB      -0.378800
     14 C14         27.6080     3.7070    64.1180 cd         1 LZB       0.455500
     15 N15         28.4840     4.5910    64.5300 nc         1 LZB      -0.611100
     16 N16         28.0580     5.7590    64.0160 na         1 LZB       0.003200
     17 H1C1        32.0030     7.0490    66.4790 hc         1 LZB       0.051367
     18 H1C2        31.9970     8.7970    66.6960 hc         1 LZB       0.051367
     19 H1C3        30.6620     7.8320    67.3310 hc         1 LZB       0.051367
     20 H2          29.9850     8.9860    65.2630 h1         1 LZB       0.066700
     21 H3C1        31.0790     8.4130    63.0680 hc         1 LZB       0.051367
     22 H3C2        32.1890     9.2220    64.1710 hc         1 LZB       0.051367
     23 H3C3        32.2950     7.4740    63.9420 hc         1 LZB       0.051367
     24 H4          30.1160     6.0510    65.2800 hn         1 LZB       0.472800
     25 H6          28.5220     9.0330    63.6680 ha         1 LZB       0.171000
     26 H14         27.7090     2.6670    64.3900 h4         1 LZB       0.058800
@<TRIPOS>BOND
     1     1     2 1   
     2     1    17 1   
     3     1    18 1   
     4     1    19 1   
     5     2     3 1   
     6     2     4 1   
     7     2    20 1   
     8     3    21 1   
     9     3    22 1   
    10     3    23 1   
    11     4     5 1   
    12     4    24 1   
    13     5     6 2   
    14     5    16 1   
    15     6     7 1   
    16     6    25 1   
    17     7     8 1   
    18     7     9 2   
    19     9    10 1   
    20    10    11 2   
    21    10    16 1   
    22    11    12 1   
    23    11    14 1   
    24    12    13 3   
    25    14    15 2   
    26    14    26 1   
    27    15    16 1   
@<TRIPOS>SUBSTRUCTURE
     1 LZB         1 TEMP              0 ****  ****    0 ROOT
