@<TRIPOS>MOLECULE
LZB
   26    27     1     0     0
SMALL
No Charge or Current Charge


@<TRIPOS>ATOM
      1 C1          31.4140     7.9280    66.5390 c3         1 LZB      -0.113600
      2 C2          30.6770     8.1540    65.2080 c3         1 LZB       0.241500
      3 C3          31.6450     8.4490    64.0480 c3         1 LZB      -0.113600
      4 N4          29.8850     6.9630    64.8920 nu         1 LZB      -0.944200
      5 C5          28.7220     6.8880    64.1580 cc         1 LZB       0.427000
      6 C6          28.1030     7.9420    63.5120 cd         1 LZB      -0.343000
      7 C7          26.8880     7.7690    62.7640 cd         1 LZB       0.532000
      8 Cl8         26.2070     9.1660    61.9980 cl         1 LZB      -0.143000
      9 N9          26.2520     6.6150    62.6190 nc         1 LZB      -0.683000
     10 C10         26.9090     5.6140    63.2750 cc         1 LZB       0.481500
     11 C11         26.5390     4.3060    63.3380 cd         1 LZB      -0.228300
     12 C12         25.4070     3.7130    62.7410 ch         1 LZB       0.341700
     13 N13         24.4790     3.1940    62.2600 n1         1 LZB      -0.468000
     14 C14         27.5290     3.6590    64.1290 cd         1 LZB       0.455500
     15 N15         28.4950     4.4650    64.5690 nc         1 LZB      -0.611100
     16 N16         28.0650     5.6600    64.0140 na         1 LZB       0.053900
     17 H1C1        32.1020     7.0770    66.4700 hc         1 LZB       0.051367
     18 H1C2        31.9960     8.8170    66.8090 hc         1 LZB       0.051367
     19 H1C3        30.7000     7.7340    67.3480 hc         1 LZB       0.051367
     20 H2          30.0140     9.0220    65.3360 h1         1 LZB       0.066700
     21 H3C1        31.0940     8.6250    63.1170 hc         1 LZB       0.051367
     22 H3C2        32.2400     9.3440    64.2630 hc         1 LZB       0.051367
     23 H3C3        32.3330     7.6090    63.8880 hc         1 LZB       0.051367
     24 H4          30.1660     6.0650    65.2940 hn         1 LZB       0.528000
     25 H6          28.5360     8.9300    63.5620 ha         1 LZB       0.153000
     26 H14         27.5670     2.6100    64.3960 h4         1 LZB       0.058800
@<TRIPOS>BOND
     1     1     2 1   
     2     1    17 1   
     3     1    18 1   
     4     1    19 1   
     5     2     3 1   
     6     2     4 1   
     7     2    20 1   
     8     3    21 1   
     9     3    22 1   
    10     3    23 1   
    11     4     5 1   
    12     4    24 1   
    13     5     6 2   
    14     5    16 1   
    15     6     7 1   
    16     6    25 1   
    17     7     8 1   
    18     7     9 2   
    19     9    10 1   
    20    10    11 2   
    21    10    16 1   
    22    11    12 1   
    23    11    14 1   
    24    12    13 3   
    25    14    15 2   
    26    14    26 1   
    27    15    16 1   
@<TRIPOS>SUBSTRUCTURE
     1 LZB         1 TEMP              0 ****  ****    0 ROOT
