@<TRIPOS>MOLECULE
LZC
   46    48     1     0     0
SMALL
No Charge or Current Charge


@<TRIPOS>ATOM
      1 C1          31.6550     7.9620    67.6190 c3         1 LZC      -0.113600
      2 C2          31.0450     8.1200    66.2150 c3         1 LZC       0.242500
      3 C3          32.1220     8.1910    65.1160 c3         1 LZC      -0.113600
      4 N4          30.1520     6.9910    65.9520 nu         1 LZC      -0.955200
      5 C5          29.0430     6.9590    65.1370 cc         1 LZC       0.442000
      6 C6          28.5950     7.9960    64.3430 cd         1 LZC      -0.402000
      7 C7          27.4330     7.8620    63.5280 cd         1 LZC       0.702900
      8 N8          27.0720     8.9330    62.7880 nu         1 LZC      -0.917100
      9 C9          26.0230     8.9390    61.7510 c6         1 LZC       0.234500
     10 C10         25.4580    10.3760    61.6090 c6         1 LZC      -0.087400
     11 C11         24.4030    10.4580    60.4750 c6         1 LZC      -0.088900
     12 C12         24.9940     9.9670    59.1280 c6         1 LZC       0.151500
     13 N13         23.9690    10.0130    58.0700 n8         1 LZC      -0.984200
     14 C14         25.5650     8.5320    59.2640 c6         1 LZC      -0.088900
     15 C15         26.6160     8.4540    60.4010 c6         1 LZC      -0.087400
     16 N16         26.6810     6.7910    63.4410 nc         1 LZC      -0.784000
     17 C17         27.1690     5.8030    64.2410 cc         1 LZC       0.524500
     18 C18         26.6460     4.5580    64.3980 cd         1 LZC      -0.275300
     19 C19         25.4990     4.0340    63.7700 ch         1 LZC       0.354700
     20 N20         24.5540     3.5700    63.2670 n1         1 LZC      -0.497000
     21 C21         27.4950     3.8930    65.3250 cd         1 LZC       0.461500
     22 N22         28.5150     4.6300    65.7640 nc         1 LZC      -0.621100
     23 N23         28.2670     5.7990    65.0620 na         1 LZC       0.030900
     24 H1C1        32.3110     8.8110    67.8480 hc         1 LZC       0.048700
     25 H1C2        30.8670     7.9290    68.3810 hc         1 LZC       0.048700
     26 H1C3        32.2480     7.0420    67.6910 hc         1 LZC       0.048700
     27 H2          30.4740     9.0600    66.2030 h1         1 LZC       0.061700
     28 H3C1        31.6630     8.3240    64.1300 hc         1 LZC       0.048700
     29 H3C2        32.7930     9.0400    65.2930 hc         1 LZC       0.048700
     30 H3C3        32.7230     7.2750    65.0960 hc         1 LZC       0.048700
     31 H4          30.2980     6.1170    66.4630 hn         1 LZC       0.527000
     32 H6          29.1360     8.9310    64.3350 ha         1 LZC       0.134000
     33 H8          27.7140     9.7160    62.8530 hn         1 LZC       0.489000
     34 H9          25.1860     8.2770    62.0260 h1         1 LZC       0.090700
     35 H101        25.0030    10.6930    62.5580 hc         1 LZC       0.046950
     36 H102        26.2730    11.0840    61.4000 hc         1 LZC       0.046950
     37 H151        27.4910     9.0630    60.1340 hc         1 LZC       0.046950
     38 H152        26.9730     7.4200    60.4990 hc         1 LZC       0.046950
     39 H111        23.5270     9.8520    60.7480 hc         1 LZC       0.048950
     40 H112        24.0500    11.4940    60.3780 hc         1 LZC       0.048950
     41 H12         25.8100    10.6460    58.8310 h1         1 LZC       0.057700
     42 H131        23.1740     9.4320    58.3570 hn         1 LZC       0.391000
     43 H132        23.5740    10.9600    58.0340 hn         1 LZC       0.391000
     44 H141        24.7530     7.8200    59.4670 hc         1 LZC       0.048950
     45 H142        26.0260     8.2210    58.3160 hc         1 LZC       0.048950
     46 H21         27.3920     2.8800    65.6940 h4         1 LZC       0.051800
@<TRIPOS>BOND
     1     1     2 1   
     2     1    24 1   
     3     1    25 1   
     4     1    26 1   
     5     2     3 1   
     6     2     4 1   
     7     2    27 1   
     8     3    28 1   
     9     3    29 1   
    10     3    30 1   
    11     4     5 1   
    12     4    31 1   
    13     5     6 2   
    14     5    23 1   
    15     6     7 1   
    16     6    32 1   
    17     7     8 1   
    18     7    16 2   
    19     8     9 1   
    20     8    33 1   
    21     9    10 1   
    22     9    15 1   
    23     9    34 1   
    24    10    11 1   
    25    10    35 1   
    26    10    36 1   
    27    11    12 1   
    28    11    39 1   
    29    11    40 1   
    30    12    13 1   
    31    12    14 1   
    32    12    41 1   
    33    13    42 1   
    34    13    43 1   
    35    14    15 1   
    36    14    44 1   
    37    14    45 1   
    38    15    37 1   
    39    15    38 1   
    40    16    17 1   
    41    17    18 2   
    42    17    23 1   
    43    18    19 1   
    44    18    21 1   
    45    19    20 3   
    46    21    22 2   
    47    21    46 1   
    48    22    23 1   
@<TRIPOS>SUBSTRUCTURE
     1 LZC         1 TEMP              0 ****  ****    0 ROOT
