@<TRIPOS>MOLECULE
LZC
   46    48     1     0     0
SMALL
abcg2


@<TRIPOS>ATOM
      1 C1          31.5850     7.9220    67.6190 c3         1 LZC      -0.113600
      2 C2          30.9760     8.0770    66.2340 c3         1 LZC       0.242500
      3 C3          32.0440     8.0890    65.1460 c3         1 LZC      -0.113600
      4 N4          30.0160     7.0030    66.0270 nu         1 LZC      -0.955200
      5 C5          29.0180     7.0520    65.1470 cc         1 LZC       0.442000
      6 C6          28.6320     8.1200    64.3660 cd         1 LZC      -0.402000
      7 C7          27.5130     7.9870    63.5030 cd         1 LZC       0.702900
      8 N8          27.1330     9.0440    62.7700 nu         1 LZC      -0.917100
      9 C9          26.0850     9.0250    61.7680 c6         1 LZC       0.234500
     10 C10         25.5530    10.4400    61.5670 c6         1 LZC      -0.087400
     11 C11         24.4630    10.4680    60.5020 c6         1 LZC      -0.088900
     12 C12         24.9360     9.8880    59.1670 c6         1 LZC       0.151500
     13 N13         23.9130     9.8740    58.1300 n8         1 LZC      -0.984200
     14 C14         25.4770     8.4780    59.3800 c6         1 LZC      -0.088900
     15 C15         26.5720     8.4440    60.4400 c6         1 LZC      -0.087400
     16 N16         26.8070     6.8610    63.3920 nc         1 LZC      -0.784000
     17 C17         27.2030     5.8530    64.1470 cc         1 LZC       0.524500
     18 C18         26.7220     4.5420    64.2930 cd         1 LZC      -0.275300
     19 C19         25.6330     3.9810    63.6140 ch         1 LZC       0.354700
     20 N20         24.7350     3.5210    63.0510 n1         1 LZC      -0.497000
     21 C21         27.5720     3.9430    65.2480 cd         1 LZC       0.461500
     22 N22         28.4970     4.7630    65.6750 nc         1 LZC      -0.621100
     23 N23         28.2660     5.9140    65.0040 na         1 LZC       0.030900
     24 H1C1        32.2990     8.7230    67.8050 hc         1 LZC       0.048700
     25 H1C2        30.8210     7.9600    68.3960 hc         1 LZC       0.048700
     26 H1C3        32.1200     6.9730    67.7060 hc         1 LZC       0.048700
     27 H2          30.4260     9.0210    66.2090 h1         1 LZC       0.061700
     28 H3C1        31.6050     8.1610    64.1510 hc         1 LZC       0.048700
     29 H3C2        32.7100     8.9410    65.2790 hc         1 LZC       0.048700
     30 H3C3        32.6440     7.1790    65.1890 hc         1 LZC       0.048700
     31 H4          30.2020     6.1080    66.4560 hn         1 LZC       0.527000
     32 H6          29.1750     9.0520    64.4040 ha         1 LZC       0.134000
     33 H8          27.7250     9.8590    62.7950 hn         1 LZC       0.489000
     34 H9          25.2710     8.4010    62.1480 h1         1 LZC       0.090700
     35 H101        25.1710    10.8310    62.5130 hc         1 LZC       0.046950
     36 H102        26.3790    11.0950    61.2630 hc         1 LZC       0.046950
     37 H151        27.4350     9.0260    60.0990 hc         1 LZC       0.046950
     38 H152        26.9180     7.4190    60.5900 hc         1 LZC       0.046950
     39 H111        23.5980     9.8880    60.8460 hc         1 LZC       0.048950
     40 H112        24.1140    11.4940    60.3590 hc         1 LZC       0.048950
     41 H12         25.7600    10.5120    58.8000 h1         1 LZC       0.057700
     42 H131        23.1190     9.3350    58.4580 hn         1 LZC       0.391000
     43 H132        23.5590    10.8140    57.9960 hn         1 LZC       0.391000
     44 H141        24.6500     7.8240    59.6850 hc         1 LZC       0.048950
     45 H142        25.8560     8.0810    58.4350 hc         1 LZC       0.048950
     46 H21         27.5190     2.9320    65.6240 h4         1 LZC       0.051800
@<TRIPOS>BOND
     1     1     2 1   
     2     1    24 1   
     3     1    25 1   
     4     1    26 1   
     5     2     3 1   
     6     2     4 1   
     7     2    27 1   
     8     3    28 1   
     9     3    29 1   
    10     3    30 1   
    11     4     5 1   
    12     4    31 1   
    13     5     6 2   
    14     5    23 1   
    15     6     7 1   
    16     6    32 1   
    17     7     8 1   
    18     7    16 2   
    19     8     9 1   
    20     8    33 1   
    21     9    10 1   
    22     9    15 1   
    23     9    34 1   
    24    10    11 1   
    25    10    35 1   
    26    10    36 1   
    27    11    12 1   
    28    11    39 1   
    29    11    40 1   
    30    12    13 1   
    31    12    14 1   
    32    12    41 1   
    33    13    42 1   
    34    13    43 1   
    35    14    15 1   
    36    14    44 1   
    37    14    45 1   
    38    15    37 1   
    39    15    38 1   
    40    16    17 1   
    41    17    18 2   
    42    17    23 1   
    43    18    19 1   
    44    18    21 1   
    45    19    20 3   
    46    21    22 2   
    47    21    46 1   
    48    22    23 1   
@<TRIPOS>SUBSTRUCTURE
     1 LZC         1 TEMP              0 ****  ****    0 ROOT
