@<TRIPOS>MOLECULE
LZD
   42    44     1     0     0
SMALL
bcc


@<TRIPOS>ATOM
      1 C2          33.2180     9.4340    65.4520 c6         1 LZD       0.147800
      2 C3          32.2040     9.4720    66.5910 c6         1 LZD      -0.111400
      3 C4          31.2800     8.2590    66.5360 c6         1 LZD      -0.088400
      4 C5          30.6420     8.1370    65.1570 c6         1 LZD       0.074700
      5 N6          29.8440     6.9300    65.0800 ns         1 LZD      -0.547900
      6 C7          28.7750     6.7900    64.2890 c          1 LZD       0.610600
      7 O8          28.3060     7.6920    63.5970 o          1 LZD      -0.636100
      8 C9          28.1510     5.4530    64.2830 cc         1 LZD       0.217800
      9 N10         28.6110     4.4450    65.0080 nd         1 LZD      -0.508800
     10 N11         27.8190     3.4360    64.7380 na         1 LZD       0.021400
     11 C12         26.8410     3.7270    63.8570 cd         1 LZD      -0.163300
     12 C13         27.0250     5.0540    63.5300 cc         1 LZD      -0.062700
     13 N14         26.3100     5.8790    62.6760 ns         1 LZD      -0.428100
     14 C15         25.2460     5.5000    61.9440 c          1 LZD       0.703700
     15 O16         24.7740     4.3790    61.9600 o          1 LZD      -0.577100
     16 C17         24.6600     6.5880    61.1010 ca         1 LZD      -0.244600
     17 C18         25.3450     7.1670    60.0430 ca         1 LZD       0.201900
     18 F19         26.5990     6.7620    59.8100 f          1 LZD      -0.124900
     19 C20         24.7830     8.1210    59.2200 ca         1 LZD      -0.195500
     20 C21         23.4770     8.5170    59.4690 ca         1 LZD      -0.058000
     21 C22         22.7490     7.9690    60.5160 ca         1 LZD      -0.195500
     22 C23         23.3540     7.0120    61.3030 ca         1 LZD       0.201900
     23 F24         22.6750     6.4780    62.3220 f          1 LZD      -0.124900
     24 C25         31.7240     8.1490    64.0670 c6         1 LZD       0.133800
     25 N26         32.6140     9.2900    64.1370 n7         1 LZD      -0.790200
     26 H2C1        33.8330    10.3360    65.4570 h1         1 LZD       0.053200
     27 H2C2        33.9010     8.5910    65.6040 h1         1 LZD       0.053200
     28 H3C1        32.7190     9.5080    67.5540 hc         1 LZD       0.046700
     29 H3C2        31.6110    10.3900    66.5180 hc         1 LZD       0.046700
     30 H26         32.0990    10.1330    63.9100 hn         1 LZD       0.353800
     31 H4C1        31.8590     7.3520    66.7490 hc         1 LZD       0.047700
     32 H4C2        30.5060     8.3270    67.3030 hc         1 LZD       0.047700
     33 H5          29.9770     8.9900    65.0020 h1         1 LZD       0.075700
     34 H6          30.1710     6.1140    65.5750 hn         1 LZD       0.331500
     35 H251        32.3220     7.2350    64.1630 h1         1 LZD       0.060700
     36 H252        31.2560     8.1200    63.0810 h1         1 LZD       0.060700
     37 H12         26.1200     2.9930    63.5480 h4         1 LZD       0.206000
     38 H20         25.3520     8.5420    58.4030 ha         1 LZD       0.159500
     39 H21         23.0190     9.2670    58.8390 ha         1 LZD       0.143000
     40 H22         21.7320     8.2790    60.7170 ha         1 LZD       0.159500
     41 H11         27.9720     2.5450    65.1850 hn         1 LZD       0.329700
     42 H14         26.6320     6.8380    62.6450 hn         1 LZD       0.366500
@<TRIPOS>BOND
     1     1     2 1   
     2     1    25 1   
     3     1    26 1   
     4     1    27 1   
     5     2     3 1   
     6     2    28 1   
     7     2    29 1   
     8     3     4 1   
     9     3    31 1   
    10     3    32 1   
    11     4     5 1   
    12     4    24 1   
    13     4    33 1   
    14     5     6 1   
    15     5    34 1   
    16     6     7 2   
    17     6     8 1   
    18     8     9 2   
    19     8    12 1   
    20     9    10 1   
    21    10    11 1   
    22    10    41 1   
    23    11    12 2   
    24    11    37 1   
    25    12    13 1   
    26    13    14 1   
    27    13    42 1   
    28    14    15 2   
    29    14    16 1   
    30    16    17 ar  
    31    16    22 ar  
    32    17    18 1   
    33    17    19 ar  
    34    19    20 ar  
    35    19    38 1   
    36    20    21 ar  
    37    20    39 1   
    38    21    22 ar  
    39    21    40 1   
    40    22    23 1   
    41    24    25 1   
    42    24    35 1   
    43    24    36 1   
    44    25    30 1   
@<TRIPOS>SUBSTRUCTURE
     1 LZD         1 TEMP              0 ****  ****    0 ROOT
