@<TRIPOS>MOLECULE
LZD
   42    44     1     0     0
SMALL
No Charge or Current Charge


@<TRIPOS>ATOM
      1 C2          33.2840     9.5040    65.2340 c6         1 LZD       0.147800
      2 C3          32.4010     9.3980    66.5010 c6         1 LZD      -0.111400
      3 C4          31.4860     8.1500    66.4420 c6         1 LZD      -0.088400
      4 C5          30.6380     8.1490    65.1450 c6         1 LZD       0.074700
      5 N6          29.8390     6.9180    65.0640 ns         1 LZD      -0.480900
      6 C7          28.7120     6.7320    64.2900 c          1 LZD       0.543600
      7 O8          28.2680     7.6280    63.5770 o          1 LZD      -0.636100
      8 C9          28.1150     5.3590    64.4210 cc         1 LZD       0.152500
      9 N10         28.5830     4.3890    65.2010 nd         1 LZD      -0.508800
     10 N11         27.6880     3.3440    64.9710 na         1 LZD       0.021800
     11 C12         26.6860     3.6890    64.0550 cd         1 LZD      -0.196000
     12 C13         26.9590     4.9760    63.7010 cc         1 LZD       0.002600
     13 N14         26.2490     5.7720    62.8030 ns         1 LZD      -0.361100
     14 C15         25.0970     5.4900    62.0930 c          1 LZD       0.636700
     15 O16         24.5230     4.4140    62.1880 o          1 LZD      -0.577100
     16 C17         24.6070     6.5710    61.1630 ca         1 LZD      -0.244600
     17 C18         25.4920     7.4640    60.5150 ca         1 LZD       0.237000
     18 F19         26.8300     7.3640    60.6720 f          1 LZD      -0.160000
     19 C20         25.0100     8.4570    59.6480 ca         1 LZD      -0.177500
     20 C21         23.6350     8.5820    59.4060 ca         1 LZD      -0.040000
     21 C22         22.7450     7.7010    60.0360 ca         1 LZD      -0.177500
     22 C23         23.2240     6.7040    60.9000 ca         1 LZD       0.237000
     23 F24         22.3170     5.9050    61.5050 f          1 LZD      -0.160000
     24 C25         31.5790     8.2960    63.9100 c6         1 LZD       0.133800
     25 N26         32.4510     9.5010    64.0070 n7         1 LZD      -0.845400
     26 H2C1        33.8840    10.4260    65.2750 h1         1 LZD       0.053200
     27 H2C2        33.9850     8.6550    65.2040 h1         1 LZD       0.053200
     28 H3C1        33.0400     9.3520    67.3940 hc         1 LZD       0.046700
     29 H3C2        31.7890    10.3050    66.6020 hc         1 LZD       0.046700
     30 H26         31.8500    10.3350    64.0250 hn         1 LZD       0.409000
     31 H4C1        32.1030     7.2410    66.4870 hc         1 LZD       0.047700
     32 H4C2        30.8280     8.1280    67.3220 hc         1 LZD       0.047700
     33 H5          29.9500     9.0080    65.1700 h1         1 LZD       0.075700
     34 H6          30.1190     6.1170    65.6200 hn         1 LZD       0.331500
     35 H251        32.2080     7.3970    63.8260 h1         1 LZD       0.060700
     36 H252        30.9730     8.3550    62.9940 h1         1 LZD       0.060700
     37 H12         25.9020     3.0040    63.7510 h4         1 LZD       0.188000
     38 H20         25.7100     9.1280    59.1570 ha         1 LZD       0.141500
     39 H21         23.2620     9.3540    58.7340 ha         1 LZD       0.125000
     40 H22         21.6760     7.7900    59.8580 ha         1 LZD       0.141500
     41 H11         27.7910     2.4440    65.4410 hn         1 LZD       0.380000
     42 H14         26.6210     6.7020    62.6310 hn         1 LZD       0.366500
@<TRIPOS>BOND
     1     1     2 1   
     2     1    25 1   
     3     1    26 1   
     4     1    27 1   
     5     2     3 1   
     6     2    28 1   
     7     2    29 1   
     8     3     4 1   
     9     3    31 1   
    10     3    32 1   
    11     4     5 1   
    12     4    24 1   
    13     4    33 1   
    14     5     6 1   
    15     5    34 1   
    16     6     7 2   
    17     6     8 1   
    18     8     9 2   
    19     8    12 1   
    20     9    10 1   
    21    10    11 1   
    22    10    41 1   
    23    11    12 2   
    24    11    37 1   
    25    12    13 1   
    26    13    14 1   
    27    13    42 1   
    28    14    15 2   
    29    14    16 1   
    30    16    17 ar  
    31    16    22 ar  
    32    17    18 1   
    33    17    19 ar  
    34    19    20 ar  
    35    19    38 1   
    36    20    21 ar  
    37    20    39 1   
    38    21    22 ar  
    39    21    40 1   
    40    22    23 1   
    41    24    25 1   
    42    24    35 1   
    43    24    36 1   
    44    25    30 1   
@<TRIPOS>SUBSTRUCTURE
     1 LZD         1 TEMP              0 ****  ****    0 ROOT
