@<TRIPOS>MOLECULE
LZE
   42    44     1     0     0
SMALL
No Charge or Current Charge


@<TRIPOS>ATOM
      1 C26         32.2270     9.6300    64.9320 c6         1 LZE       0.151300
      2 C25         31.4270     8.3440    64.6220 c6         1 LZE      -0.130900
      3 C5          30.3040     8.1240    65.6660 c6         1 LZE       0.113700
      4 N6          29.5980     6.8650    65.4140 ns         1 LZE      -0.482900
      5 C7          28.5850     6.6720    64.4980 c          1 LZE       0.542600
      6 O8          28.1620     7.5910    63.8010 o          1 LZE      -0.636100
      7 C9          28.0790     5.2570    64.4560 cc         1 LZE       0.152500
      8 N10         28.5320     4.2530    65.2010 nd         1 LZE      -0.509800
      9 N11         27.7480     3.1760    64.7860 na         1 LZE       0.020800
     10 C12         26.8260     3.5350    63.7930 cd         1 LZE      -0.197000
     11 C13         27.0370     4.8650    63.5840 cc         1 LZE       0.001600
     12 N14         26.3640     5.6930    62.6890 ns         1 LZE      -0.360100
     13 C15         25.3390     5.3960    61.8110 c          1 LZE       0.630700
     14 O16         24.8640     4.2730    61.7000 o          1 LZE      -0.573100
     15 C17         24.8080     6.5640    61.0280 ca         1 LZE      -0.139600
     16 C18         24.4040     7.7610    61.6690 ca         1 LZE       0.154500
     17 C20         23.9060     8.8380    60.9170 ca         1 LZE      -0.107000
     18 C21         23.8020     8.7430    59.5210 ca         1 LZE      -0.079000
     19 C22         24.1920     7.5600    58.8770 ca         1 LZE      -0.107000
     20 C23         24.6880     6.4760    59.6200 ca         1 LZE       0.154500
     21 C4          30.9260     8.1140    67.0830 c6         1 LZE      -0.130900
     22 N24         32.7810     9.5870    66.3060 n7         1 LZE      -0.846400
     23 C3          31.7350     9.4070    67.3410 c6         1 LZE       0.151300
     24 Cl1         25.2120     5.0450    58.7290 cl         1 LZE      -0.175500
     25 Cl7         24.4300     7.9420    63.4250 cl         1 LZE      -0.175500
     26 H261        33.0440     9.7420    64.2040 h1         1 LZE       0.056200
     27 H262        31.5680    10.5060    64.8260 h1         1 LZE       0.056200
     28 H251        30.9940     8.4160    63.6150 hc         1 LZE       0.051200
     29 H252        32.1060     7.4800    64.6100 hc         1 LZE       0.051200
     30 H24         33.4310     8.7930    66.3650 hn         1 LZE       0.403000
     31 H5          29.5820     8.9530    65.6000 h1         1 LZE       0.078700
     32 H6          29.8710     6.0400    65.9370 hn         1 LZE       0.330500
     33 H4C1        30.1340     8.0210    67.8380 hc         1 LZE       0.051200
     34 H4C2        31.5810     7.2400    67.2050 hc         1 LZE       0.051200
     35 H11         27.8680     2.2460    65.1890 hn         1 LZE       0.379000
     36 H12         26.1310     2.8330    63.3480 h4         1 LZE       0.188000
     37 H14         26.6460     6.6700    62.6770 hn         1 LZE       0.367500
     38 H20         23.5910     9.7490    61.4210 ha         1 LZE       0.137000
     39 H21         23.4160     9.5800    58.9430 ha         1 LZE       0.125000
     40 H22         24.1170     7.4840    57.7950 ha         1 LZE       0.137000
     41 H3C1        31.0560    10.2730    67.3360 h1         1 LZE       0.056200
     42 H3C2        32.2010     9.3590    68.3370 h1         1 LZE       0.056200
@<TRIPOS>BOND
     1     1     2 1   
     2     1    22 1   
     3     1    26 1   
     4     1    27 1   
     5     2     3 1   
     6     2    28 1   
     7     2    29 1   
     8     3     4 1   
     9     3    21 1   
    10     3    31 1   
    11     4     5 1   
    12     4    32 1   
    13     5     6 2   
    14     5     7 1   
    15     7     8 2   
    16     7    11 1   
    17     8     9 1   
    18     9    10 1   
    19     9    35 1   
    20    10    11 2   
    21    10    36 1   
    22    11    12 1   
    23    12    13 1   
    24    12    37 1   
    25    13    14 2   
    26    13    15 1   
    27    15    16 ar  
    28    15    20 ar  
    29    16    17 ar  
    30    16    25 1   
    31    17    18 ar  
    32    17    38 1   
    33    18    19 ar  
    34    18    39 1   
    35    19    20 ar  
    36    19    40 1   
    37    20    24 1   
    38    21    23 1   
    39    21    33 1   
    40    21    34 1   
    41    22    23 1   
    42    22    30 1   
    43    23    41 1   
    44    23    42 1   
@<TRIPOS>SUBSTRUCTURE
     1 LZE         1 TEMP              0 ****  ****    0 ROOT
