@<TRIPOS>MOLECULE
LZE
   42    44     1     0     0
SMALL
abcg2


@<TRIPOS>ATOM
      1 C26         32.3630     9.4670    64.8590 c6         1 LZE       0.151300
      2 C25         31.5620     8.1990    64.5700 c6         1 LZE      -0.130900
      3 C5          30.4200     8.0530    65.5760 c6         1 LZE       0.113700
      4 N6          29.6710     6.8270    65.3800 ns         1 LZE      -0.482900
      5 C7          28.6560     6.7030    64.5210 c          1 LZE       0.542600
      6 O8          28.2210     7.6240    63.8290 o          1 LZE      -0.636100
      7 C9          28.0410     5.3640    64.4360 cc         1 LZE       0.152500
      8 N10         28.4620     4.3330    65.1520 nd         1 LZE      -0.509800
      9 N11         27.6830     3.3350    64.8120 na         1 LZE       0.020800
     10 C12         26.7500     3.6560    63.8930 cd         1 LZE      -0.197000
     11 C13         26.9530     4.9920    63.6170 cc         1 LZE       0.001600
     12 N14         26.2860     5.8420    62.7490 ns         1 LZE      -0.360100
     13 C15         25.2440     5.4990    61.9730 c          1 LZE       0.630700
     14 O16         24.7480     4.3900    61.9300 o          1 LZE      -0.573100
     15 C17         24.7240     6.6310    61.1340 ca         1 LZE      -0.139600
     16 C18         23.7350     7.4820    61.6130 ca         1 LZE       0.154500
     17 C20         23.2050     8.4930    60.8290 ca         1 LZE      -0.107000
     18 C21         23.6740     8.6540    59.5340 ca         1 LZE      -0.079000
     19 C22         24.6600     7.8220    59.0260 ca         1 LZE      -0.107000
     20 C23         25.1710     6.8190    59.8320 ca         1 LZE       0.154500
     21 C4          30.9620     8.1140    66.9990 c6         1 LZE      -0.130900
     22 N24         32.8610     9.5510    66.2230 n7         1 LZE      -0.846400
     23 C3          31.7930     9.3830    67.1950 c6         1 LZE       0.151300
     24 CL1         26.4070     5.7790    59.2160 cl         1 LZE      -0.175500
     25 CL7         23.1650     7.2740    63.2320 cl         1 LZE      -0.175500
     26 H261        33.2060     9.5430    64.1700 h1         1 LZE       0.056200
     27 H262        31.7300    10.3420    64.6740 h1         1 LZE       0.056200
     28 H251        31.1670     8.2250    63.5520 hc         1 LZE       0.051200
     29 H252        32.2160     7.3240    64.6420 hc         1 LZE       0.051200
     30 H24         33.5540     8.8250    66.3660 hn         1 LZE       0.403000
     31 H5          29.7250     8.8870    65.4360 h1         1 LZE       0.078700
     32 H6          29.9800     6.0000    65.8690 hn         1 LZE       0.330500
     33 H4C1        30.1410     8.0870    67.7190 hc         1 LZE       0.051200
     34 H4C2        31.5930     7.2380    67.1900 hc         1 LZE       0.051200
     35 H11         27.8130     2.4300    65.2380 hn         1 LZE       0.379000
     36 H12         26.0440     2.9340    63.5240 h4         1 LZE       0.188000
     37 H14         26.6430     6.7890    62.7230 hn         1 LZE       0.367500
     38 H20         22.4380     9.1450    61.2230 ha         1 LZE       0.137000
     39 H21         23.2660     9.4390    58.9130 ha         1 LZE       0.125000
     40 H22         25.0250     7.9530    58.0180 ha         1 LZE       0.137000
     41 H3C1        31.1360    10.2570    67.1310 h1         1 LZE       0.056200
     42 H3C2        32.2240     9.3930    68.1970 h1         1 LZE       0.056200
@<TRIPOS>BOND
     1     1     2 1   
     2     1    22 1   
     3     1    26 1   
     4     1    27 1   
     5     2     3 1   
     6     2    28 1   
     7     2    29 1   
     8     3     4 1   
     9     3    21 1   
    10     3    31 1   
    11     4     5 1   
    12     4    32 1   
    13     5     6 2   
    14     5     7 1   
    15     7     8 2   
    16     7    11 1   
    17     8     9 1   
    18     9    10 1   
    19     9    35 1   
    20    10    11 2   
    21    10    36 1   
    22    11    12 1   
    23    12    13 1   
    24    12    37 1   
    25    13    14 2   
    26    13    15 1   
    27    15    16 ar  
    28    15    20 ar  
    29    16    17 ar  
    30    16    25 1   
    31    17    18 ar  
    32    17    38 1   
    33    18    19 ar  
    34    18    39 1   
    35    19    20 ar  
    36    19    40 1   
    37    20    24 1   
    38    21    23 1   
    39    21    33 1   
    40    21    34 1   
    41    22    23 1   
    42    22    30 1   
    43    23    41 1   
    44    23    42 1   
@<TRIPOS>SUBSTRUCTURE
     1 LZE         1 TEMP              0 ****  ****    0 ROOT
