@<TRIPOS>MOLECULE
LZF
   56    59     1     0     0
SMALL
bcc


@<TRIPOS>ATOM
      1 F32         16.8400     5.3530    28.3550 f          1 LZF      -0.150900
      2 C17         16.5530     6.6030    28.7540 ca         1 LZF       0.074900
      3 C11         16.9470     7.0070    30.0070 ca         1 LZF      -0.121000
      4 C9          16.6360     8.2960    30.4130 ca         1 LZF       0.010600
      5 N1          17.0040     8.7270    31.7230 n          1 LZF      -0.266200
      6 C21         16.1180     8.5470    32.7420 cc         1 LZF       0.028600
      7 C29         16.4060     8.9360    34.0060 cd         1 LZF      -0.252000
      8 C30         17.6630     9.5410    34.2450 cd         1 LZF      -0.035000
      9 C23         18.5510     9.7240    33.2340 cc         1 LZF      -0.271200
     10 C8          18.2600     9.3150    31.8860 c          1 LZF       0.697700
     11 O25         19.0080     9.4450    30.9250 o          1 LZF      -0.617500
     12 C26         15.9550     9.1480    29.5640 ca         1 LZF      -0.094000
     13 C28         15.5690     8.7240    28.3000 ca         1 LZF      -0.135000
     14 C16         15.8600     7.4310    27.8680 ca         1 LZF       0.060600
     15 N15         15.5110     6.8980    26.6350 ns         1 LZF      -0.465100
     16 C14         14.7960     7.4600    25.6310 c          1 LZF       0.673100
     17 O27         14.3610     8.5950    25.6220 o          1 LZF      -0.578100
     18 C22         14.6210     6.5220    24.4440 c3         1 LZF       0.085800
     19 N4          14.7550     5.1390    24.8120 n3         1 LZF      -0.759600
     20 C20         15.1660     4.2260    23.7640 c5         1 LZF       0.136800
     21 C13         15.0910     2.8890    24.5000 c5         1 LZF       0.127100
     22 O33         15.0170     1.7480    23.6990 os         1 LZF      -0.392600
     23 C34         16.2080     1.4740    22.9980 c3         1 LZF       0.119700
     24 C18         13.5670     4.5470    25.4140 c5         1 LZF       0.143800
     25 C6          13.8090     3.0290    25.3310 c5         1 LZF       0.112700
     26 N7          13.9350     2.3680    26.6100 ns         1 LZF      -0.550900
     27 C5          12.8670     2.1350    27.3860 c          1 LZF       0.708700
     28 O24         11.7260     2.4470    27.0670 o          1 LZF      -0.610100
     29 C2          13.1090     1.4720    28.6790 cc         1 LZF      -0.162700
     30 C12         14.2500     1.0330    29.2880 cd         1 LZF      -0.108000
     31 C19         14.0120     0.4510    30.5550 cd         1 LZF      -0.152000
     32 S3          11.7160     1.1820    29.6490 ss         1 LZF       0.076200
     33 C10         12.6860     0.4680    30.8670 cc         1 LZF       0.007300
     34 CL1         11.9720    -0.1330    32.2940 cl         1 LZF      -0.045400
     35 H11         17.4800     6.3240    30.6560 ha         1 LZF       0.161000
     36 H26         15.7160    10.1540    29.8830 ha         1 LZF       0.150000
     37 H21         15.1830     8.0790    32.4720 h4         1 LZF       0.154000
     38 H29         15.6890     8.7820    34.7970 ha         1 LZF       0.151000
     39 H30         17.9200     9.8600    35.2480 ha         1 LZF       0.136000
     40 H23         19.5130    10.1870    33.4110 ha         1 LZF       0.159000
     41 H28         15.0360     9.4040    27.6570 ha         1 LZF       0.174000
     42 H15         15.7760     5.9380    26.4370 hn         1 LZF       0.358500
     43 H221        13.6580     6.7550    23.9700 h1         1 LZF       0.071200
     44 H222        15.4010     6.7810    23.7220 h1         1 LZF       0.071200
     45 H201        14.4820     4.2220    22.9010 h1         1 LZF       0.053200
     46 H202        16.1680     4.4710    23.4080 h1         1 LZF       0.053200
     47 H181        13.4270     4.8900    26.4410 h1         1 LZF       0.062200
     48 H182        12.6610     4.8140    24.8540 h1         1 LZF       0.062200
     49 H13         15.9640     2.8330    25.1700 h1         1 LZF       0.046700
     50 H6          12.9880     2.5660    24.7810 h1         1 LZF       0.095700
     51 H341        16.0880     0.5090    22.5080 h1         1 LZF       0.034033
     52 H342        16.4240     2.2240    22.2310 h1         1 LZF       0.034033
     53 H343        17.0730     1.4160    23.6700 h1         1 LZF       0.034033
     54 H7          14.8560     2.1240    26.9360 hn         1 LZF       0.324500
     55 H12         15.2410     1.1120    28.8620 ha         1 LZF       0.150000
     56 H19         14.7800     0.0460    31.1970 ha         1 LZF       0.166000
@<TRIPOS>BOND
     1     1     2 1   
     2     2     3 ar  
     3     2    14 ar  
     4     3     4 ar  
     5     3    35 1   
     6     4     5 1   
     7     4    12 ar  
     8     5     6 1   
     9     5    10 1   
    10     6     7 2   
    11     6    37 1   
    12     7     8 1   
    13     7    38 1   
    14     8     9 2   
    15     8    39 1   
    16     9    10 1   
    17     9    40 1   
    18    10    11 2   
    19    12    13 ar  
    20    12    36 1   
    21    13    14 ar  
    22    13    41 1   
    23    14    15 1   
    24    15    16 1   
    25    15    42 1   
    26    16    17 2   
    27    16    18 1   
    28    18    19 1   
    29    18    43 1   
    30    18    44 1   
    31    19    20 1   
    32    19    24 1   
    33    20    21 1   
    34    20    45 1   
    35    20    46 1   
    36    21    22 1   
    37    21    25 1   
    38    21    49 1   
    39    22    23 1   
    40    23    51 1   
    41    23    52 1   
    42    23    53 1   
    43    24    25 1   
    44    24    47 1   
    45    24    48 1   
    46    25    26 1   
    47    25    50 1   
    48    26    27 1   
    49    26    54 1   
    50    27    28 2   
    51    27    29 1   
    52    29    30 2   
    53    29    32 1   
    54    30    31 1   
    55    30    55 1   
    56    31    33 2   
    57    31    56 1   
    58    32    33 1   
    59    33    34 1   
@<TRIPOS>SUBSTRUCTURE
     1 LZF         1 TEMP              0 ****  ****    0 ROOT
