@<TRIPOS>MOLECULE
LZF
   56    59     1     0     0
SMALL
No Charge or Current Charge


@<TRIPOS>ATOM
      1 F32         17.6260     4.9070    28.6590 f          1 LZF      -0.186000
      2 C17         17.0090     6.0700    28.9730 ca         1 LZF       0.110000
      3 C11         17.0470     6.5250    30.3000 ca         1 LZF      -0.103000
      4 C9          16.4540     7.7560    30.6590 ca         1 LZF       0.010600
      5 N1          16.3910     8.1820    32.0460 n          1 LZF      -0.199200
      6 C21         16.2790     7.2050    33.0480 cc         1 LZF      -0.021400
      7 C29         16.3130     7.5000    34.3960 cd         1 LZF      -0.302000
      8 C30         16.4610     8.8590    34.8230 cd         1 LZF      -0.085000
      9 C23         16.5800     9.8230    33.8500 cc         1 LZF      -0.321200
     10 C8          16.5730     9.5460    32.4060 c          1 LZF       0.555200
     11 O25         16.7410    10.4440    31.5920 o          1 LZF      -0.542000
     12 C26         15.7470     8.4650    29.6620 ca         1 LZF      -0.076000
     13 C28         15.7060     8.0080    28.3320 ca         1 LZF      -0.117000
     14 C16         16.3500     6.8070    27.9720 ca         1 LZF      -0.032000
     15 N15         16.3120     6.2790    26.6530 ns         1 LZF      -0.139000
     16 C14         15.9780     6.8400    25.4310 c          1 LZF       0.606100
     17 O27         15.7230     8.0300    25.2600 o          1 LZF      -0.578100
     18 C22         15.9320     5.7940    24.2880 c3         1 LZF       0.085800
     19 N4          15.2120     4.5240    24.6160 n3         1 LZF      -0.759600
     20 C20         15.3040     3.4220    23.6290 c5         1 LZF       0.136800
     21 C13         14.3200     2.3440    24.2170 c5         1 LZF       0.150300
     22 O33         13.5030     1.8060    23.1420 os         1 LZF      -0.439000
     23 C34         14.1630     0.9790    22.1660 c3         1 LZF       0.142900
     24 C18         13.7480     4.6410    24.8400 c5         1 LZF       0.143800
     25 C6          13.3720     3.1630    25.1650 c5         1 LZF       0.112700
     26 N7          13.8840     2.9340    26.5340 ns         1 LZF      -0.483900
     27 C5          13.1180     3.3620    27.5950 c          1 LZF       0.641700
     28 O24         11.9620     3.7390    27.4700 o          1 LZF      -0.610100
     29 C2          13.8200     3.3370    28.8890 cc         1 LZF      -0.307600
     30 C12         15.1190     2.9320    29.1270 cd         1 LZF      -0.090000
     31 C19         15.4930     3.0450    30.4940 cd         1 LZF      -0.134000
     32 S3          13.0290     3.8780    30.3650 ss         1 LZF       0.366000
     33 C10         14.4880     3.5320    31.2890 cc         1 LZF      -0.046000
     34 Cl1         14.5860     3.7820    33.0050 cl         1 LZF      -0.137000
     35 H11         17.5800     5.9280    31.0340 ha         1 LZF       0.143000
     36 H26         15.2000     9.3700    29.9150 ha         1 LZF       0.132000
     37 H21         16.1260     6.2070    32.6550 h4         1 LZF       0.204000
     38 H29         16.2100     6.7020    35.1290 ha         1 LZF       0.201000
     39 H30         16.4820     9.1190    35.8810 ha         1 LZF       0.186000
     40 H23         16.7080    10.8680    34.1080 ha         1 LZF       0.209000
     41 H28         15.1440     8.5840    27.6020 ha         1 LZF       0.156000
     42 H15         16.5110     5.2870    26.5990 hn         1 LZF       0.192000
     43 H221        15.4820     6.2790    23.4120 h1         1 LZF       0.071200
     44 H222        16.9770     5.5700    24.0390 h1         1 LZF       0.071200
     45 H201        14.9810     3.7570    22.6330 h1         1 LZF       0.053200
     46 H202        16.3270     3.0320    23.5410 h1         1 LZF       0.053200
     47 H181        13.4920     5.3290    25.6570 h1         1 LZF       0.062200
     48 H182        13.2280     4.9880    23.9350 h1         1 LZF       0.062200
     49 H13         14.8380     1.5260    24.7370 h1         1 LZF       0.046700
     50 H6          12.3060     2.9340    25.0370 h1         1 LZF       0.095700
     51 H341        13.4380     0.6050    21.4320 h1         1 LZF       0.034033
     52 H342        14.9330     1.5420    21.6240 h1         1 LZF       0.034033
     53 H343        14.6390     0.1140    22.6460 h1         1 LZF       0.034033
     54 H7          14.8470     2.7020    26.7300 hn         1 LZF       0.324500
     55 H12         15.8020     2.5630    28.3670 ha         1 LZF       0.132000
     56 H19         16.4730     2.7720    30.8720 ha         1 LZF       0.148000
@<TRIPOS>BOND
     1     1     2 1   
     2     2     3 ar  
     3     2    14 ar  
     4     3     4 ar  
     5     3    35 1   
     6     4     5 1   
     7     4    12 ar  
     8     5     6 1   
     9     5    10 1   
    10     6     7 2   
    11     6    37 1   
    12     7     8 1   
    13     7    38 1   
    14     8     9 2   
    15     8    39 1   
    16     9    10 1   
    17     9    40 1   
    18    10    11 2   
    19    12    13 ar  
    20    12    36 1   
    21    13    14 ar  
    22    13    41 1   
    23    14    15 1   
    24    15    16 1   
    25    15    42 1   
    26    16    17 2   
    27    16    18 1   
    28    18    19 1   
    29    18    43 1   
    30    18    44 1   
    31    19    20 1   
    32    19    24 1   
    33    20    21 1   
    34    20    45 1   
    35    20    46 1   
    36    21    22 1   
    37    21    25 1   
    38    21    49 1   
    39    22    23 1   
    40    23    51 1   
    41    23    52 1   
    42    23    53 1   
    43    24    25 1   
    44    24    47 1   
    45    24    48 1   
    46    25    26 1   
    47    25    50 1   
    48    26    27 1   
    49    26    54 1   
    50    27    28 2   
    51    27    29 1   
    52    29    30 2   
    53    29    32 1   
    54    30    31 1   
    55    30    55 1   
    56    31    33 2   
    57    31    56 1   
    58    32    33 1   
    59    33    34 1   
@<TRIPOS>SUBSTRUCTURE
     1 LZF         1 TEMP              0 ****  ****    0 ROOT
