@<TRIPOS>MOLECULE
LZG
   52    55     1     0     0
SMALL
abcg2


@<TRIPOS>ATOM
      1 CL1         11.8380    59.1170     4.9540 cl         1 LZG      -0.138000
      2 C10         11.7210    60.8310     4.9700 cc         1 LZG      -0.042000
      3 C19         11.0330    61.5930     5.8730 cd         1 LZG      -0.137000
      4 C13         11.1350    62.9710     5.5710 cd         1 LZG      -0.095000
      5 S3          12.4970    61.7640     3.7500 ss         1 LZG       0.376000
      6 C2          11.8980    63.2290     4.4580 cc         1 LZG      -0.300600
      7 C5          12.1970    64.4830     3.7460 c          1 LZG       0.632700
      8 O24         12.8000    64.4630     2.6690 o          1 LZG      -0.594100
      9 N7          11.7590    65.6330     4.3090 ns         1 LZG      -0.479900
     10 C6          11.6180    66.8410     3.4990 c5         1 LZG       0.087700
     11 C12         11.0710    67.9990     4.3610 c5         1 LZG       0.169300
     12 F32         11.7540    69.1840     4.0400 f          1 LZG      -0.256000
     13 C20          9.5870    68.1300     3.9790 c5         1 LZG       0.149800
     14 C18         10.5200    66.6560     2.4500 c5         1 LZG       0.140800
     15 N4           9.3300    66.8920     3.2560 n3         1 LZG      -0.791600
     16 C22          8.0600    66.6880     2.6060 c3         1 LZG       0.106800
     17 C14          7.7000    65.2010     2.5430 c          1 LZG       0.600100
     18 O27          6.9420    64.7430     1.6960 o          1 LZG      -0.573100
     19 N15          8.2710    64.4780     3.5310 ns         1 LZG      -0.165000
     20 C16          8.1620    63.0810     3.7020 ca         1 LZG      -0.076000
     21 C17          8.7980    62.1990     2.8310 ca         1 LZG       0.183000
     22 F33          9.4880    62.7020     1.7860 f          1 LZG      -0.161000
     23 C28          7.4740    62.5410     4.7820 ca         1 LZG      -0.084000
     24 C26          7.4250    61.1690     4.9820 ca         1 LZG      -0.132000
     25 C9           8.0820    60.3200     4.1000 ca         1 LZG       0.057600
     26 C11          8.7790    60.8330     3.0120 ca         1 LZG      -0.117000
     27 N1           8.0710    58.9070     4.3430 n          1 LZG      -0.200200
     28 C8           7.6220    58.0330     3.3260 c          1 LZG       0.554200
     29 O25          7.2470    58.4780     2.2370 o          1 LZG      -0.538000
     30 C23          7.6350    56.6420     3.6850 cc         1 LZG      -0.316200
     31 C30          8.0250    56.2140     4.9170 cd         1 LZG      -0.082000
     32 C29          8.4460    57.1410     5.8990 cd         1 LZG      -0.298000
     33 C21          8.4570    58.4590     5.5790 cc         1 LZG      -0.023400
     34 H19         10.4710    61.1830     6.6990 ha         1 LZG       0.142000
     35 H13         10.6390    63.7330     6.1550 ha         1 LZG       0.128000
     36 H7          11.2010    65.5700     5.1460 hn         1 LZG       0.309500
     37 H6          12.5820    67.1080     3.0740 h1         1 LZG       0.108700
     38 H12         11.2310    67.8310     5.4250 h1         1 LZG       0.070700
     39 H181        10.6280    67.3970     1.6420 h1         1 LZG       0.071200
     40 H182        10.5170    65.6620     2.0100 h1         1 LZG       0.071200
     41 H201         8.9280    68.2250     4.8410 h1         1 LZG       0.059200
     42 H202         9.4760    69.0250     3.3480 h1         1 LZG       0.059200
     43 H221         7.2730    67.1830     3.1810 h1         1 LZG       0.069700
     44 H222         8.0190    67.0850     1.5830 h1         1 LZG       0.069700
     45 H15          8.8870    65.0050     4.1410 hn         1 LZG       0.175000
     46 H28          6.9740    63.2120     5.4680 ha         1 LZG       0.125000
     47 H11          9.3130    60.1910     2.3280 ha         1 LZG       0.156000
     48 H26          6.8760    60.7600     5.8190 ha         1 LZG       0.127000
     49 H21          8.7860    59.2230     6.2660 h4         1 LZG       0.200000
     50 H23          7.3030    55.9520     2.9210 ha         1 LZG       0.211000
     51 H30          8.0140    55.1560     5.1480 ha         1 LZG       0.188000
     52 H29          8.7690    56.8250     6.8790 ha         1 LZG       0.201000
@<TRIPOS>BOND
     1     1     2 1   
     2     2     3 2   
     3     2     5 1   
     4     3     4 1   
     5     3    34 1   
     6     4     6 2   
     7     4    35 1   
     8     5     6 1   
     9     6     7 1   
    10     7     8 2   
    11     7     9 1   
    12     9    10 1   
    13     9    36 1   
    14    10    11 1   
    15    10    14 1   
    16    10    37 1   
    17    11    12 1   
    18    11    13 1   
    19    11    38 1   
    20    13    15 1   
    21    13    41 1   
    22    13    42 1   
    23    14    15 1   
    24    14    39 1   
    25    14    40 1   
    26    15    16 1   
    27    16    17 1   
    28    16    43 1   
    29    16    44 1   
    30    17    18 2   
    31    17    19 1   
    32    19    20 1   
    33    19    45 1   
    34    20    21 ar  
    35    20    23 ar  
    36    21    22 1   
    37    21    26 ar  
    38    23    24 ar  
    39    23    46 1   
    40    24    25 ar  
    41    24    48 1   
    42    25    26 ar  
    43    25    27 1   
    44    26    47 1   
    45    27    28 1   
    46    27    33 1   
    47    28    29 2   
    48    28    30 1   
    49    30    31 2   
    50    30    50 1   
    51    31    32 1   
    52    31    51 1   
    53    32    33 2   
    54    32    52 1   
    55    33    49 1   
@<TRIPOS>SUBSTRUCTURE
     1 LZG         1 TEMP              0 ****  ****    0 ROOT
