@<TRIPOS>MOLECULE
LZG
   52    55     1     0     0
SMALL
No Charge or Current Charge


@<TRIPOS>ATOM
      1 Cl1         11.5190    59.2570     5.2290 cl         1 LZG      -0.138000
      2 C10         11.5520    60.9820     5.0330 cc         1 LZG      -0.042000
      3 C19         10.8570    61.8870     5.7920 cd         1 LZG      -0.137000
      4 C13         11.0850    63.2360     5.4020 cd         1 LZG      -0.095000
      5 S3          12.5260    61.7710     3.7960 ss         1 LZG       0.376000
      6 C2          11.9610    63.3460     4.3390 cc         1 LZG      -0.300600
      7 C5          12.3800    64.5800     3.6540 c          1 LZG       0.632700
      8 O24         13.1360    64.5870     2.6940 o          1 LZG      -0.594100
      9 N7          11.8240    65.7270     4.1770 ns         1 LZG      -0.479900
     10 C6          11.8020    66.9320     3.3140 c5         1 LZG       0.087700
     11 C12         11.3490    68.1210     4.2370 c5         1 LZG       0.169300
     12 F32         12.0200    69.2970     3.8820 f          1 LZG      -0.256000
     13 C20          9.8110    68.2610     3.9570 c5         1 LZG       0.149800
     14 C18         10.5600    66.7130     2.3990 c5         1 LZG       0.140800
     15 N4           9.4650    66.9410     3.3770 n3         1 LZG      -0.791600
     16 C22          8.0720    66.7320     2.8750 c3         1 LZG       0.106800
     17 C14          7.7140    65.2500     2.5900 c          1 LZG       0.600100
     18 O27          7.2950    64.8520     1.5060 o          1 LZG      -0.573100
     19 N15          7.9340    64.4240     3.6820 ns         1 LZG      -0.165000
     20 C16          7.9450    63.0100     3.7870 ca         1 LZG      -0.076000
     21 C17          8.5980    62.1870     2.8440 ca         1 LZG       0.183000
     22 F33          9.2790    62.7280     1.8090 f          1 LZG      -0.161000
     23 C28          7.3580    62.4150     4.9150 ca         1 LZG      -0.084000
     24 C26          7.3710    61.0180     5.0720 ca         1 LZG      -0.132000
     25 C9           7.9560    60.1790     4.0960 ca         1 LZG       0.057600
     26 C11          8.6150    60.7930     3.0080 ca         1 LZG      -0.117000
     27 N1           8.0680    58.7480     4.3090 n          1 LZG      -0.200200
     28 C8           7.8930    57.8320     3.2370 c          1 LZG       0.554200
     29 O25          7.6950    58.1760     2.0790 o          1 LZG      -0.538000
     30 C23          7.9290    56.4100     3.6070 cc         1 LZG      -0.316200
     31 C30          8.0830    55.9490     4.8940 cd         1 LZG      -0.082000
     32 C29          8.2260    56.9230     5.9340 cd         1 LZG      -0.298000
     33 C21          8.2210    58.2670     5.6200 cc         1 LZG      -0.023400
     34 H19         10.1960    61.6010     6.6050 ha         1 LZG       0.142000
     35 H13         10.6020    64.0740     5.8950 ha         1 LZG       0.128000
     36 H7          11.1680    65.6000     4.9350 hn         1 LZG       0.309500
     37 H6          12.7360    67.1200     2.7680 h1         1 LZG       0.108700
     38 H12         11.5560    67.9220     5.2960 h1         1 LZG       0.070700
     39 H181        10.5350    67.4460     1.5790 h1         1 LZG       0.071200
     40 H182        10.5360    65.7090     1.9520 h1         1 LZG       0.071200
     41 H201         9.2480    68.4690     4.8770 h1         1 LZG       0.059200
     42 H202         9.6110    69.0750     3.2460 h1         1 LZG       0.059200
     43 H221         7.3520    67.0820     3.6260 h1         1 LZG       0.069700
     44 H222         7.8970    67.3060     1.9570 h1         1 LZG       0.069700
     45 H15          8.2290    64.9130     4.5180 hn         1 LZG       0.175000
     46 H28          6.8810    63.0350     5.6710 ha         1 LZG       0.125000
     47 H11          9.1690    60.1970     2.2900 ha         1 LZG       0.156000
     48 H26          6.8820    60.5940     5.9450 ha         1 LZG       0.127000
     49 H21          8.3760    59.0540     6.3500 h4         1 LZG       0.200000
     50 H23          7.8040    55.7240     2.7770 ha         1 LZG       0.211000
     51 H30          8.0930    54.8820     5.1140 ha         1 LZG       0.188000
     52 H29          8.3590    56.6060     6.9670 ha         1 LZG       0.201000
@<TRIPOS>BOND
     1     1     2 1   
     2     2     3 2   
     3     2     5 1   
     4     3     4 1   
     5     3    34 1   
     6     4     6 2   
     7     4    35 1   
     8     5     6 1   
     9     6     7 1   
    10     7     8 2   
    11     7     9 1   
    12     9    10 1   
    13     9    36 1   
    14    10    11 1   
    15    10    14 1   
    16    10    37 1   
    17    11    12 1   
    18    11    13 1   
    19    11    38 1   
    20    13    15 1   
    21    13    41 1   
    22    13    42 1   
    23    14    15 1   
    24    14    39 1   
    25    14    40 1   
    26    15    16 1   
    27    16    17 1   
    28    16    43 1   
    29    16    44 1   
    30    17    18 2   
    31    17    19 1   
    32    19    20 1   
    33    19    45 1   
    34    20    21 ar  
    35    20    23 ar  
    36    21    22 1   
    37    21    26 ar  
    38    23    24 ar  
    39    23    46 1   
    40    24    25 ar  
    41    24    48 1   
    42    25    26 ar  
    43    25    27 1   
    44    26    47 1   
    45    27    28 1   
    46    27    33 1   
    47    28    29 2   
    48    28    30 1   
    49    30    31 2   
    50    30    50 1   
    51    31    32 1   
    52    31    51 1   
    53    32    33 2   
    54    32    52 1   
    55    33    49 1   
@<TRIPOS>SUBSTRUCTURE
     1 LZG         1 TEMP              0 ****  ****    0 ROOT
