@<TRIPOS>MOLECULE
LZH
   56    59     1     0     0
SMALL
bcc


@<TRIPOS>ATOM
      1 F32          9.9400    63.2100     1.8740 f          1 LZH      -0.124900
      2 C17          9.0820    62.6900     2.7560 ca         1 LZH       0.145900
      3 C11          9.1260    61.3370     3.0070 ca         1 LZH      -0.140000
      4 C9           8.2410    60.8120     3.9380 ca         1 LZH       0.053600
      5 N1           8.2780    59.4200     4.2410 n          1 LZH      -0.267200
      6 C21          8.6180    59.0420     5.5060 cc         1 LZH       0.027600
      7 C29          8.6520    57.7410     5.8750 cd         1 LZH      -0.250000
      8 C30          8.3250    56.7650     4.9040 cd         1 LZH      -0.035000
      9 C23          7.9810    57.1300     3.6430 cc         1 LZH      -0.268200
     10 C8           7.9250    58.5090     3.2380 c          1 LZH       0.697700
     11 O25          7.5890    58.9080     2.1300 o          1 LZH      -0.609500
     12 C26          7.3380    61.6280     4.5990 ca         1 LZH      -0.143000
     13 C28          7.3230    62.9900     4.3320 ca         1 LZH      -0.100000
     14 C16          8.1950    63.5420     3.4070 ca         1 LZH       0.016600
     15 N15          8.2350    64.9260     3.1730 ns         1 LZH      -0.495100
     16 C14          7.8620    65.5280     2.0240 c          1 LZH       0.662100
     17 C13         11.5200    67.1530     3.5070 c5         1 LZH       0.115700
     18 O27          7.3110    64.9570     1.1010 o          1 LZH      -0.570100
     19 C24         10.8170    68.2750     4.3030 c5         1 LZH      -0.091400
     20 C22          8.1770    67.0250     2.0070 c3         1 LZH       0.120800
     21 N4           9.3160    67.2990     2.8360 n3         1 LZH      -0.795600
     22 C20         10.6080    66.9450     2.2960 c5         1 LZH       0.147800
     23 N7          11.5830    65.9360     4.3000 ns         1 LZH      -0.555900
     24 C5          12.1980    64.8290     3.8520 c          1 LZH       0.705700
     25 O24         12.9370    64.8140     2.8750 o          1 LZH      -0.599100
     26 C2          11.9200    63.5750     4.5750 cc         1 LZH      -0.164700
     27 C12         11.1850    63.3010     5.6930 cd         1 LZH      -0.115000
     28 C19         11.1480    61.9220     6.0060 cd         1 LZH      -0.157000
     29 S3          12.5830    62.1470     3.8810 ss         1 LZH       0.097200
     30 C10         11.8580    61.1900     5.1030 cc         1 LZH       0.000300
     31 CL1         12.0450    59.4950     5.0910 cl         1 LZH      -0.042400
     32 C15          9.4920    68.5430     3.5630 c5         1 LZH       0.165500
     33 H11          9.8430    60.7110     2.4940 ha         1 LZH       0.170000
     34 H26          6.6430    61.2060     5.3130 ha         1 LZH       0.146000
     35 H21          8.8600    59.8450     6.1860 h4         1 LZH       0.149000
     36 H29          8.9330    57.4730     6.8820 ha         1 LZH       0.150000
     37 H30          8.3510    55.7160     5.1710 ha         1 LZH       0.136000
     38 H23          7.7240    56.3910     2.8960 ha         1 LZH       0.160000
     39 H28          6.6230    63.6370     4.8440 ha         1 LZH       0.144000
     40 H15          8.7210    65.5260     3.8290 hn         1 LZH       0.341500
     41 H221         8.2880    67.3320     0.9610 h1         1 LZH       0.071200
     42 H222         7.2980    67.5440     2.3990 h1         1 LZH       0.071200
     43 H13         12.5260    67.4410     3.2050 h1         1 LZH       0.087700
     44 H241        10.6140    67.9540     5.3260 hc         1 LZH       0.057200
     45 H242        11.4410    69.1660     4.3760 hc         1 LZH       0.057200
     46 H201        10.9210    67.5740     1.4500 h1         1 LZH       0.064700
     47 H202        10.6180    65.9150     1.9400 h1         1 LZH       0.064700
     48 H7          10.9650    65.8630     5.0920 hn         1 LZH       0.313500
     49 HA           8.6650    68.6700     4.2710 h1         1 LZH       0.058700
     50 H33          7.6990    70.1980     2.5640 ho         1 LZH       0.400000
     51 H12         10.6740    64.0470     6.2870 ha         1 LZH       0.147000
     52 H19         10.6300    61.5020     6.8550 ha         1 LZH       0.159000
     53 C34          9.5920    69.8050     2.7080 c3         1 LZH       0.102400
     54 O33          8.4320    70.0680     1.9540 oh         1 LZH      -0.585800
     55 H341        10.4150    69.7150     1.9950 h1         1 LZH       0.050700
     56 H342         9.8400    70.6450     3.3700 h1         1 LZH       0.050700
@<TRIPOS>BOND
     1     1     2 1   
     2     2     3 ar  
     3     2    14 ar  
     4     3     4 ar  
     5     3    33 1   
     6     4     5 1   
     7     4    12 ar  
     8     5     6 1   
     9     5    10 1   
    10     6     7 2   
    11     6    35 1   
    12     7     8 1   
    13     7    36 1   
    14     8     9 2   
    15     8    37 1   
    16     9    10 1   
    17     9    38 1   
    18    10    11 2   
    19    12    13 ar  
    20    12    34 1   
    21    13    14 ar  
    22    13    39 1   
    23    14    15 1   
    24    15    16 1   
    25    15    40 1   
    26    16    18 2   
    27    16    20 1   
    28    17    19 1   
    29    17    22 1   
    30    17    23 1   
    31    17    43 1   
    32    19    32 1   
    33    19    44 1   
    34    19    45 1   
    35    20    21 1   
    36    20    41 1   
    37    20    42 1   
    38    21    22 1   
    39    21    32 1   
    40    22    46 1   
    41    22    47 1   
    42    23    24 1   
    43    23    48 1   
    44    24    25 2   
    45    24    26 1   
    46    26    27 2   
    47    26    29 1   
    48    27    28 1   
    49    27    51 1   
    50    28    30 2   
    51    28    52 1   
    52    29    30 1   
    53    30    31 1   
    54    32    49 1   
    55    32    53 1   
    56    50    54 1   
    57    53    54 1   
    58    53    55 1   
    59    53    56 1   
@<TRIPOS>SUBSTRUCTURE
     1 LZH         1 TEMP              0 ****  ****    0 ROOT
