@<TRIPOS>MOLECULE
LZH
   56    59     1     0     0
SMALL
No Charge or Current Charge


@<TRIPOS>ATOM
      1 F32          9.6570    63.0410     1.6390 f          1 LZH      -0.160000
      2 C17          8.8680    62.5320     2.6130 ca         1 LZH       0.181000
      3 C11          8.9100    61.1520     2.8610 ca         1 LZH      -0.122000
      4 C9           8.1400    60.5740     3.8950 ca         1 LZH       0.053600
      5 N1           8.2730    59.1630     4.2090 n          1 LZH      -0.200200
      6 C21          8.2770    58.7650     5.5560 cc         1 LZH      -0.022400
      7 C29          8.2900    57.4420     5.9520 cd         1 LZH      -0.300000
      8 C30          8.3130    56.4050     4.9650 cd         1 LZH      -0.085000
      9 C23          8.3060    56.7850     3.6420 cc         1 LZH      -0.318200
     10 C8           8.2660    58.1800     3.1830 c          1 LZH       0.555200
     11 O25          8.2040    58.4480     1.9900 o          1 LZH      -0.534000
     12 C26          7.4080    61.4420     4.7380 ca         1 LZH      -0.125000
     13 C28          7.3690    62.8260     4.4950 ca         1 LZH      -0.082000
     14 C16          8.0750    63.3800     3.4150 ca         1 LZH      -0.076000
     15 N15          8.0310    64.7850     3.2250 ns         1 LZH      -0.169000
     16 C14          7.9270    65.5400     2.0660 c          1 LZH       0.595100
     17 C13         11.7930    67.3390     3.3470 c5         1 LZH       0.115700
     18 O27          7.6660    65.0640     0.9630 o          1 LZH      -0.570100
     19 C24         11.1410    68.4830     4.2070 c5         1 LZH      -0.091400
     20 C22          8.1940    67.0480     2.3040 c3         1 LZH       0.120800
     21 N4           9.4840    67.3430     3.0050 n3         1 LZH      -0.795600
     22 C20         10.7280    67.0590     2.2460 c5         1 LZH       0.147800
     23 N7          11.7380    66.1410     4.2080 ns         1 LZH      -0.488900
     24 C5          12.4020    65.0120     3.7830 c          1 LZH       0.638700
     25 O24         13.2650    65.0340     2.9170 o          1 LZH      -0.599100
     26 C2          11.9630    63.7750     4.4500 cc         1 LZH      -0.309600
     27 C12         10.9790    63.6470     5.4110 cd         1 LZH      -0.097000
     28 C19         10.7730    62.2980     5.8140 cd         1 LZH      -0.139000
     29 S3          12.6590    62.2180     4.0190 ss         1 LZH       0.387000
     30 C10         11.5910    61.4110     5.1640 cc         1 LZH      -0.053000
     31 Cl1         11.6180    59.6920     5.4060 cl         1 LZH      -0.134000
     32 C15          9.7060    68.6890     3.6050 c5         1 LZH       0.165500
     33 H11          9.5700    60.5390     2.2560 ha         1 LZH       0.152000
     34 H26          6.8280    61.0490     5.5680 ha         1 LZH       0.128000
     35 H21          8.3110    59.5980     6.2500 h4         1 LZH       0.199000
     36 H29          8.3020    57.1910     7.0110 ha         1 LZH       0.200000
     37 H30          8.3330    55.3540     5.2500 ha         1 LZH       0.186000
     38 H23          8.3110    56.0470     2.8470 ha         1 LZH       0.210000
     39 H28          6.7800    63.4680     5.1480 ha         1 LZH       0.126000
     40 H15          8.1990    65.3310     4.0610 hn         1 LZH       0.175000
     41 H221         8.1530    67.5530     1.3300 h1         1 LZH       0.071200
     42 H222         7.3520    67.4160     2.9050 h1         1 LZH       0.071200
     43 H13         12.7940    67.5750     2.9590 h1         1 LZH       0.087700
     44 H241        11.0880    68.2300     5.2720 hc         1 LZH       0.057200
     45 H242        11.7320    69.4030     4.1480 hc         1 LZH       0.057200
     46 H201        10.8520    67.7300     1.3850 h1         1 LZH       0.064700
     47 H202        10.7720    66.0290     1.8670 h1         1 LZH       0.064700
     48 H7          11.0090    66.0050     4.8910 hn         1 LZH       0.313500
     49 HA           8.9920    68.8690     4.4200 h1         1 LZH       0.058700
     50 H33          7.7090    70.2720     2.9640 ho         1 LZH       0.439000
     51 H12         10.4050    64.4720     5.8220 ha         1 LZH       0.129000
     52 H19         10.0400    62.0000     6.5560 ha         1 LZH       0.141000
     53 C34          9.6210    69.9270     2.6430 c3         1 LZH       0.125600
     54 O33          8.2790    70.1650     2.1720 oh         1 LZH      -0.648000
     55 H341        10.3020    69.7860     1.7950 h1         1 LZH       0.050700
     56 H342         9.9770    70.8080     3.1930 h1         1 LZH       0.050700
@<TRIPOS>BOND
     1     1     2 1   
     2     2     3 ar  
     3     2    14 ar  
     4     3     4 ar  
     5     3    33 1   
     6     4     5 1   
     7     4    12 ar  
     8     5     6 1   
     9     5    10 1   
    10     6     7 2   
    11     6    35 1   
    12     7     8 1   
    13     7    36 1   
    14     8     9 2   
    15     8    37 1   
    16     9    10 1   
    17     9    38 1   
    18    10    11 2   
    19    12    13 ar  
    20    12    34 1   
    21    13    14 ar  
    22    13    39 1   
    23    14    15 1   
    24    15    16 1   
    25    15    40 1   
    26    16    18 2   
    27    16    20 1   
    28    17    19 1   
    29    17    22 1   
    30    17    23 1   
    31    17    43 1   
    32    19    32 1   
    33    19    44 1   
    34    19    45 1   
    35    20    21 1   
    36    20    41 1   
    37    20    42 1   
    38    21    22 1   
    39    21    32 1   
    40    22    46 1   
    41    22    47 1   
    42    23    24 1   
    43    23    48 1   
    44    24    25 2   
    45    24    26 1   
    46    26    27 2   
    47    26    29 1   
    48    27    28 1   
    49    27    51 1   
    50    28    30 2   
    51    28    52 1   
    52    29    30 1   
    53    30    31 1   
    54    32    49 1   
    55    32    53 1   
    56    50    54 1   
    57    53    54 1   
    58    53    55 1   
    59    53    56 1   
@<TRIPOS>SUBSTRUCTURE
     1 LZH         1 TEMP              0 ****  ****    0 ROOT
