@<TRIPOS>MOLECULE
LZI
   66    70     1     0     0
SMALL
No Charge or Current Charge


@<TRIPOS>ATOM
      1 O30         16.6140    10.2980    31.6340 o          1 LZI      -0.542000
      2 C7          16.5310     9.4070    32.4690 c          1 LZI       0.555200
      3 C28         16.6200     9.7070    33.9060 cc         1 LZI      -0.320200
      4 C36         16.5990     8.7530    34.8980 cd         1 LZI      -0.085000
      5 C35         16.4740     7.3840    34.4990 cd         1 LZI      -0.303000
      6 C24         16.3650     7.0670    33.1590 cc         1 LZI      -0.021400
      7 N2          16.3780     8.0320    32.1400 n          1 LZI      -0.199200
      8 C8          16.3680     7.5880    30.7570 ca         1 LZI       0.007600
      9 C11         16.9800     6.3720    30.3770 ca         1 LZI      -0.103000
     10 C19         16.8740     5.8950    29.0620 ca         1 LZI       0.107000
     11 F39         17.5110     4.7500    28.7250 f          1 LZI      -0.187000
     12 C31         15.5730     8.2550    29.7980 ca         1 LZI      -0.074000
     13 C34         15.4630     7.7760    28.4800 ca         1 LZI      -0.118000
     14 C18         16.1260     6.5940    28.0950 ca         1 LZI      -0.028000
     15 N15         16.0230     6.0440    26.7890 ns         1 LZI      -0.142000
     16 C12         15.5980     6.5770    25.5830 c          1 LZI       0.599100
     17 O33         15.2990     7.7560    25.4130 o          1 LZI      -0.578100
     18 C16         15.5140     5.5140    24.4590 c3         1 LZI       0.108800
     19 N1          14.8720     4.2180    24.8550 n3         1 LZI      -0.782600
     20 C5          14.9700     3.0680    23.8990 c5         1 LZI       0.127500
     21 C10         14.4390     3.3240    22.4290 c          1 LZI       0.563100
     22 N23         15.5070     3.4140    21.5610 ns         1 LZI      -0.499900
     23 O32         13.2750     3.4100    22.0520 o          1 LZI      -0.598100
     24 C21         13.4260     4.2790    25.1960 c5         1 LZI       0.167800
     25 C17         13.1470     2.7910    25.5710 c5         1 LZI       0.104700
     26 C20         14.0900     1.9810    24.6100 c5         1 LZI      -0.092400
     27 N13         13.7400     2.6230    26.9120 ns         1 LZI      -0.489900
     28 C6          13.0160     3.0440    28.0060 c          1 LZI       0.638700
     29 O29         11.8400     3.3740    27.9380 o          1 LZI      -0.602100
     30 C3          13.7880     3.0710    29.2590 cc         1 LZI      -0.308600
     31 C14         15.1130     2.7200    29.4310 cd         1 LZI      -0.093000
     32 C22         15.5570     2.8730    30.7730 cd         1 LZI      -0.134000
     33 C9          14.5790     3.3370    31.6140 cc         1 LZI      -0.046000
     34 S4          13.0580     3.6100    30.7670 ss         1 LZI       0.370000
     35 Cl3         14.7610     3.6210    33.3180 cl         1 LZI      -0.136000
     36 C37         15.3790     3.6340    20.1240 c3         1 LZI       0.128000
     37 C25         16.7530     3.8120    19.4960 cx         1 LZI      -0.153700
     38 C27         16.9930     3.4570    18.0460 cx         1 LZI      -0.126900
     39 C26         17.6070     2.6160    19.1410 cx         1 LZI      -0.126900
     40 H28         16.7260    10.7590    34.1430 ha         1 LZI       0.208000
     41 H36         16.6770     9.0310    35.9490 ha         1 LZI       0.185000
     42 H35         16.4470     6.5940    35.2470 ha         1 LZI       0.201000
     43 H24         16.2250     6.0580    32.7910 h4         1 LZI       0.204000
     44 H11         17.5800     5.8050    31.0830 ha         1 LZI       0.141000
     45 H31         15.0120     9.1440    30.0740 ha         1 LZI       0.132000
     46 H34         14.8360     8.3210    27.7800 ha         1 LZI       0.157000
     47 H15         16.2450     5.0570    26.7370 hn         1 LZI       0.190000
     48 H161        14.9840     5.9700    23.6120 h1         1 LZI       0.079700
     49 H162        16.5480     5.3300    24.1390 h1         1 LZI       0.079700
     50 H5          16.0070     2.7140    23.8220 h1         1 LZI       0.075700
     51 H211        13.2110     4.9670    26.0250 h1         1 LZI       0.065200
     52 H212        12.8130     4.5950    24.3410 h1         1 LZI       0.065200
     53 H201        13.5100     1.3960    23.8880 hc         1 LZI       0.062200
     54 H202        14.7130     1.2560    25.1460 hc         1 LZI       0.062200
     55 H23         16.4370     3.3280    21.9530 hn         1 LZI       0.312500
     56 H371        14.8640     2.7740    19.6760 h1         1 LZI       0.058700
     57 H372        14.7730     4.5330    19.9480 h1         1 LZI       0.058700
     58 H17         12.0880     2.5050    25.5070 h1         1 LZI       0.092700
     59 H13         14.7200     2.4300    27.0580 hn         1 LZI       0.319500
     60 H14         15.7650     2.3620    28.6400 ha         1 LZI       0.130000
     61 H22         16.5660     2.6440    31.1010 ha         1 LZI       0.148000
     62 H25         17.2720     4.6910    19.8730 hc         1 LZI       0.087700
     63 H271        16.1700     3.0280    17.4790 hc         1 LZI       0.074200
     64 H272        17.6540     4.1000    17.4690 hc         1 LZI       0.074200
     65 H261        18.6800     2.6940    19.3000 hc         1 LZI       0.074200
     66 H262        17.1940     1.6240    19.3080 hc         1 LZI       0.074200
@<TRIPOS>BOND
     1     1     2 2   
     2     2     3 1   
     3     2     7 1   
     4     3     4 2   
     5     3    40 1   
     6     4     5 1   
     7     4    41 1   
     8     5     6 2   
     9     5    42 1   
    10     6     7 1   
    11     6    43 1   
    12     7     8 1   
    13     8     9 ar  
    14     8    12 ar  
    15     9    10 ar  
    16     9    44 1   
    17    10    11 1   
    18    10    14 ar  
    19    12    13 ar  
    20    12    45 1   
    21    13    14 ar  
    22    13    46 1   
    23    14    15 1   
    24    15    16 1   
    25    15    47 1   
    26    16    17 2   
    27    16    18 1   
    28    18    19 1   
    29    18    48 1   
    30    18    49 1   
    31    19    20 1   
    32    19    24 1   
    33    20    21 1   
    34    20    26 1   
    35    20    50 1   
    36    21    22 1   
    37    21    23 2   
    38    22    36 1   
    39    22    55 1   
    40    24    25 1   
    41    24    51 1   
    42    24    52 1   
    43    25    26 1   
    44    25    27 1   
    45    25    58 1   
    46    26    53 1   
    47    26    54 1   
    48    27    28 1   
    49    27    59 1   
    50    28    29 2   
    51    28    30 1   
    52    30    31 2   
    53    30    34 1   
    54    31    32 1   
    55    31    60 1   
    56    32    33 2   
    57    32    61 1   
    58    33    34 1   
    59    33    35 1   
    60    36    37 1   
    61    36    56 1   
    62    36    57 1   
    63    37    38 1   
    64    37    39 1   
    65    37    62 1   
    66    38    39 1   
    67    38    63 1   
    68    38    64 1   
    69    39    65 1   
    70    39    66 1   
@<TRIPOS>SUBSTRUCTURE
     1 LZI         1 TEMP              0 ****  ****    0 ROOT
