@<TRIPOS>MOLECULE
LZI
   66    70     1     0     0
SMALL
bcc


@<TRIPOS>ATOM
      1 O30         19.1020     9.7670    30.8490 o          1 LZI      -0.617500
      2 C7          18.4840     9.6010    31.8940 c          1 LZI       0.697700
      3 C28         18.8880    10.0780    33.1900 cc         1 LZI      -0.270200
      4 C36         18.1430     9.8470    34.3010 cd         1 LZI      -0.035000
      5 C35         16.9300     9.1210    34.2230 cd         1 LZI      -0.253000
      6 C24         16.5360     8.6690    33.0100 cc         1 LZI       0.028600
      7 N2          17.2780     8.8970    31.8900 n          1 LZI      -0.266200
      8 C8          16.8050     8.3960    30.6400 ca         1 LZI       0.007600
      9 C11         17.1700     7.1220    30.2350 ca         1 LZI      -0.121000
     10 C19         16.6880     6.6540    29.0360 ca         1 LZI       0.071900
     11 F39         17.0310     5.4180    28.6360 f          1 LZI      -0.151900
     12 C31         15.9790     9.1700    29.8470 ca         1 LZI      -0.092000
     13 C34         15.5020     8.6810    28.6390 ca         1 LZI      -0.136000
     14 C18         15.8530     7.4030    28.2040 ca         1 LZI       0.064600
     15 N15         15.4330     6.8160    27.0200 ns         1 LZI      -0.468100
     16 C12         14.7000     7.3460    26.0120 c          1 LZI       0.666100
     17 O33         14.2550     8.4770    25.9800 o          1 LZI      -0.578100
     18 C16         14.5090     6.3760    24.8510 c3         1 LZI       0.108800
     19 N1          14.7610     5.0110    25.2180 n3         1 LZI      -0.782600
     20 C5          15.5090     4.1630    24.3210 c5         1 LZI       0.127500
     21 C10         14.9150     4.0680    22.9130 c          1 LZI       0.630100
     22 N23         15.7830     3.6850    21.9690 ns         1 LZI      -0.566900
     23 O32         13.7350     4.3090    22.6940 o          1 LZI      -0.598100
     24 C21         13.6430     4.2730    25.7920 c5         1 LZI       0.167800
     25 C17         13.9890     2.7890    25.5580 c5         1 LZI       0.104700
     26 C20         15.4240     2.8120    25.0280 c5         1 LZI      -0.092400
     27 N13         13.8790     1.9550    26.7330 ns         1 LZI      -0.556900
     28 C6          12.6920     1.5700    27.2220 c          1 LZI       0.705700
     29 O29         11.6210     1.8690    26.7050 o          1 LZI      -0.602100
     30 C3          12.7080     0.7420    28.4410 cc         1 LZI      -0.163700
     31 C14         13.7270     0.2420    29.2000 cd         1 LZI      -0.111000
     32 C22         13.2740    -0.5170    30.3050 cd         1 LZI      -0.152000
     33 C9          11.9130    -0.5690    30.3450 cc         1 LZI       0.007300
     34 S4          11.1670     0.2890    29.0630 ss         1 LZI       0.080200
     35 CL3         10.9630    -1.3770    31.5080 cl         1 LZI      -0.044400
     36 C37         15.4270     3.4340    20.5860 c3         1 LZI       0.128000
     37 C25         16.5960     3.7110    19.6840 cx         1 LZI      -0.153700
     38 C27         16.7470     2.9190    18.4240 cx         1 LZI      -0.126900
     39 C26         17.6920     2.6930    19.5650 cx         1 LZI      -0.126900
     40 H28         19.8150    10.6320    33.2410 ha         1 LZI       0.158000
     41 H36         18.4800    10.2200    35.2600 ha         1 LZI       0.135000
     42 H35         16.3250     8.9290    35.0960 ha         1 LZI       0.151000
     43 H24         15.6240     8.1080    32.8630 h4         1 LZI       0.154000
     44 H11         17.8170     6.5000    30.8410 ha         1 LZI       0.159000
     45 H31         15.6960    10.1640    30.1670 ha         1 LZI       0.150000
     46 H34         14.8560     9.3000    28.0400 ha         1 LZI       0.175000
     47 H15         15.7070     5.8560    26.8320 hn         1 LZI       0.356500
     48 H161        13.5030     6.5370    24.4490 h1         1 LZI       0.079700
     49 H162        15.2110     6.6900    24.0730 h1         1 LZI       0.079700
     50 H5          16.5460     4.5040    24.2530 h1         1 LZI       0.075700
     51 H211        13.5400     4.4920    26.8590 h1         1 LZI       0.065200
     52 H212        12.6930     4.5350    25.3160 h1         1 LZI       0.065200
     53 H201        15.6490     1.9640    24.3820 hc         1 LZI       0.062200
     54 H202        16.1400     2.8070    25.8530 hc         1 LZI       0.062200
     55 H23         16.7270     3.4580    22.2430 hn         1 LZI       0.312500
     56 H371        15.0960     2.3980    20.4570 h1         1 LZI       0.058700
     57 H372        14.5840     4.0720    20.3220 h1         1 LZI       0.058700
     58 H17         13.3270     2.3820    24.7940 h1         1 LZI       0.092700
     59 H13         14.7220     1.7460    27.2440 hn         1 LZI       0.319500
     60 H14         14.7770     0.3970    28.9920 ha         1 LZI       0.148000
     61 H22         13.9190    -0.9950    31.0260 ha         1 LZI       0.166000
     62 H25         16.8990     4.7520    19.6400 hc         1 LZI       0.087700
     63 H271        16.0090     2.1520    18.2190 hc         1 LZI       0.074200
     64 H272        17.1160     3.4270    17.5430 hc         1 LZI       0.074200
     65 H261        18.7100     3.0480    19.4650 hc         1 LZI       0.074200
     66 H262        17.5980     1.7720    20.1280 hc         1 LZI       0.074200
@<TRIPOS>BOND
     1     1     2 2   
     2     2     3 1   
     3     2     7 1   
     4     3     4 2   
     5     3    40 1   
     6     4     5 1   
     7     4    41 1   
     8     5     6 2   
     9     5    42 1   
    10     6     7 1   
    11     6    43 1   
    12     7     8 1   
    13     8     9 ar  
    14     8    12 ar  
    15     9    10 ar  
    16     9    44 1   
    17    10    11 1   
    18    10    14 ar  
    19    12    13 ar  
    20    12    45 1   
    21    13    14 ar  
    22    13    46 1   
    23    14    15 1   
    24    15    16 1   
    25    15    47 1   
    26    16    17 2   
    27    16    18 1   
    28    18    19 1   
    29    18    48 1   
    30    18    49 1   
    31    19    20 1   
    32    19    24 1   
    33    20    21 1   
    34    20    26 1   
    35    20    50 1   
    36    21    22 1   
    37    21    23 2   
    38    22    36 1   
    39    22    55 1   
    40    24    25 1   
    41    24    51 1   
    42    24    52 1   
    43    25    26 1   
    44    25    27 1   
    45    25    58 1   
    46    26    53 1   
    47    26    54 1   
    48    27    28 1   
    49    27    59 1   
    50    28    29 2   
    51    28    30 1   
    52    30    31 2   
    53    30    34 1   
    54    31    32 1   
    55    31    60 1   
    56    32    33 2   
    57    32    61 1   
    58    33    34 1   
    59    33    35 1   
    60    36    37 1   
    61    36    56 1   
    62    36    57 1   
    63    37    38 1   
    64    37    39 1   
    65    37    62 1   
    66    38    39 1   
    67    38    63 1   
    68    38    64 1   
    69    39    65 1   
    70    39    66 1   
@<TRIPOS>SUBSTRUCTURE
     1 LZI         1 TEMP              0 ****  ****    0 ROOT
