@<TRIPOS>MOLECULE
LZJ
   29    31     1     0     0
SMALL
No Charge or Current Charge


@<TRIPOS>ATOM
      1 Br2          6.9980   -21.6300    26.6440 br         1 LZJ      -0.074100
      2 C18          6.0590   -20.3000    25.6290 ca         1 LZJ      -0.017400
      3 C17          6.4610   -18.9600    25.7680 ca         1 LZJ      -0.077500
      4 C16          5.7990   -17.9470    25.0560 ca         1 LZJ      -0.107000
      5 C15          4.7300   -18.2720    24.2040 ca         1 LZJ      -0.077500
      6 C14          4.3220   -19.6090    24.0620 ca         1 LZJ      -0.017400
      7 Br1          2.8600   -19.9810    22.8760 br         1 LZJ      -0.074100
      8 C12          4.9830   -20.6450    24.7700 cp         1 LZJ       0.016000
      9 C9           4.5490   -22.0640    24.6230 cp         1 LZJ      -0.199000
     10 C10          3.4280   -22.5450    25.3260 ca         1 LZJ       0.058000
     11 C5           3.0490   -23.8870    25.1600 ca         1 LZJ      -0.312000
     12 C6           1.9360   -24.4080    25.8450 ca         1 LZJ       0.203900
     13 N1           1.5620   -25.6900    25.6970 nb         1 LZJ      -0.255000
     14 C8           5.2170   -22.9830    23.7860 ca         1 LZJ       0.439900
     15 N13          6.3070   -22.6200    23.0550 nv         1 LZJ      -1.077900
     16 N7           4.8540   -24.2640    23.6290 nb         1 LZJ      -0.250000
     17 C4           3.7850   -24.7390    24.2980 ca         1 LZJ       0.197000
     18 N3           3.3870   -26.0230    24.1680 nb         1 LZJ      -0.265000
     19 C2           2.3140   -26.4190    24.8660 ca         1 LZJ       0.411900
     20 N11          1.9450   -27.7130    24.7070 nv         1 LZJ      -1.071900
     21 H17          7.2870   -18.7060    26.4290 ha         1 LZJ       0.136000
     22 H16          6.1130   -16.9110    25.1650 ha         1 LZJ       0.124000
     23 H15          4.2190   -17.4850    23.6540 ha         1 LZJ       0.136000
     24 H10          2.8700   -21.8830    25.9860 ha         1 LZJ       0.122000
     25 H6           1.3380   -23.7950    26.5180 h4         1 LZJ       0.018100
     26 H131         6.8810   -23.3600    22.6590 hn         1 LZJ       0.501500
     27 H132         6.7810   -21.7550    23.2960 hn         1 LZJ       0.501500
     28 H111         1.0170   -27.9890    25.0210 hn         1 LZJ       0.506000
     29 H112         2.3310   -28.2330    23.9220 hn         1 LZJ       0.506000
@<TRIPOS>BOND
     1     1     2 1   
     2     2     3 ar  
     3     2     8 ar  
     4     3     4 ar  
     5     3    21 1   
     6     4     5 ar  
     7     4    22 1   
     8     5     6 ar  
     9     5    23 1   
    10     6     7 1   
    11     6     8 ar  
    12     8     9 1   
    13     9    10 ar  
    14     9    14 ar  
    15    10    11 ar  
    16    10    24 1   
    17    11    12 ar  
    18    11    17 ar  
    19    12    13 ar  
    20    12    25 1   
    21    13    19 ar  
    22    14    15 1   
    23    14    16 ar  
    24    15    26 1   
    25    15    27 1   
    26    16    17 ar  
    27    17    18 ar  
    28    18    19 ar  
    29    19    20 1   
    30    20    28 1   
    31    20    29 1   
@<TRIPOS>SUBSTRUCTURE
     1 LZJ         1 TEMP              0 ****  ****    0 ROOT
