@<TRIPOS>MOLECULE
LZJ
   29    31     1     0     0
SMALL
abcg2


@<TRIPOS>ATOM
      1 BR2          6.6900   -21.6340    26.8400 br         1 LZJ      -0.074100
      2 C18          5.9410   -20.3030    25.7340 ca         1 LZJ      -0.017400
      3 C17          6.3860   -18.9970    25.8740 ca         1 LZJ      -0.077500
      4 C16          5.8550   -18.0150    25.0540 ca         1 LZJ      -0.107000
      5 C15          4.8970   -18.3280    24.1030 ca         1 LZJ      -0.077500
      6 C14          4.4700   -19.6420    23.9860 ca         1 LZJ      -0.017400
      7 BR1          3.1800   -20.0570    22.6760 br         1 LZJ      -0.074100
      8 C12          4.9700   -20.6630    24.7980 cp         1 LZJ       0.016000
      9 C9           4.4970   -22.0560    24.6670 cp         1 LZJ      -0.199000
     10 C10          3.4470   -22.5270    25.3920 ca         1 LZJ       0.058000
     11 C5           3.0310   -23.8620    25.2290 ca         1 LZJ      -0.312000
     12 C6           1.9670   -24.4630    25.9140 ca         1 LZJ       0.203900
     13 N1           1.6130   -25.7060    25.7320 nb         1 LZJ      -0.255000
     14 C8           5.1420   -22.9620    23.7550 ca         1 LZJ       0.439900
     15 N13          6.1750   -22.5300    23.0210 nv         1 LZJ      -1.077900
     16 N7           4.7630   -24.2170    23.5910 nb         1 LZJ      -0.250000
     17 C4           3.7260   -24.6780    24.3040 ca         1 LZJ       0.197000
     18 N3           3.3630   -25.9540    24.1130 nb         1 LZJ      -0.265000
     19 C2           2.3420   -26.4070    24.8210 ca         1 LZJ       0.411900
     20 N11          1.9720   -27.6830    24.6480 nv         1 LZJ      -1.071900
     21 H17          7.1360   -18.7420    26.6100 ha         1 LZJ       0.136000
     22 H16          6.1950   -16.9930    25.1540 ha         1 LZJ       0.124000
     23 H15          4.4950   -17.5540    23.4640 ha         1 LZJ       0.136000
     24 H10          2.9310   -21.8800    26.0920 ha         1 LZJ       0.122000
     25 H6           1.3960   -23.8840    26.6350 h4         1 LZJ       0.018100
     26 H131         6.6450   -23.1670    22.4010 hn         1 LZJ       0.501500
     27 H132         6.5530   -21.6040    23.1130 hn         1 LZJ       0.501500
     28 H111         1.1770   -28.0520    25.1380 hn         1 LZJ       0.506000
     29 H112         2.4260   -28.2560    23.9600 hn         1 LZJ       0.506000
@<TRIPOS>BOND
     1     1     2 1   
     2     2     3 ar  
     3     2     8 ar  
     4     3     4 ar  
     5     3    21 1   
     6     4     5 ar  
     7     4    22 1   
     8     5     6 ar  
     9     5    23 1   
    10     6     7 1   
    11     6     8 ar  
    12     8     9 1   
    13     9    10 ar  
    14     9    14 ar  
    15    10    11 ar  
    16    10    24 1   
    17    11    12 ar  
    18    11    17 ar  
    19    12    13 ar  
    20    12    25 1   
    21    13    19 ar  
    22    14    15 1   
    23    14    16 ar  
    24    15    26 1   
    25    15    27 1   
    26    16    17 ar  
    27    17    18 ar  
    28    18    19 ar  
    29    19    20 1   
    30    20    28 1   
    31    20    29 1   
@<TRIPOS>SUBSTRUCTURE
     1 LZJ         1 TEMP              0 ****  ****    0 ROOT
