@<TRIPOS>MOLECULE
LZK
   37    39     1     0     0
SMALL
No Charge or Current Charge


@<TRIPOS>ATOM
      1 N20          2.0170   -27.6840    24.8560 nv         1 LZK      -1.067900
      2 C19          2.4190   -26.3940    24.9620 ca         1 LZK       0.399900
      3 N17          2.8870   -25.8270    23.8410 nb         1 LZK      -0.262000
      4 N18          2.3040   -25.8400    26.1730 nb         1 LZK      -0.258000
      5 C16          2.7070   -24.5610    26.2680 ca         1 LZK       0.196900
      6 C11          3.2130   -23.8690    25.1520 ca         1 LZK      -0.305000
      7 C15          3.2980   -24.5430    23.9080 ca         1 LZK       0.189000
      8 N12          3.7820   -23.9030    22.8250 nb         1 LZK      -0.257000
      9 C6           4.1800   -22.6260    22.9310 ca         1 LZK       0.430900
     10 N13          4.6600   -22.1050    21.7660 nv         1 LZK      -1.077900
     11 C5           3.6300   -22.5330    25.2660 ca         1 LZK       0.036000
     12 C2           4.1290   -21.8690    24.1280 cp         1 LZK      -0.135000
     13 C1           4.5920   -20.4420    24.2210 cp         1 LZK      -0.129000
     14 C4           5.6940   -20.0910    25.0440 ca         1 LZK       0.187100
     15 O1           6.3200   -21.1180    25.7260 os         1 LZK      -0.327600
     16 C45          7.4470   -20.8930    26.5900 c3         1 LZK       0.146400
     17 C3           3.9340   -19.4030    23.5100 ca         1 LZK       0.187100
     18 O7           2.8490   -19.7630    22.7340 os         1 LZK      -0.327600
     19 C43          2.0650   -18.7990    22.0100 c3         1 LZK       0.146400
     20 C7           4.3720   -18.0660    23.6110 ca         1 LZK      -0.241000
     21 C14          5.4670   -17.7440    24.4250 ca         1 LZK      -0.029000
     22 C9           6.1270   -18.7520    25.1420 ca         1 LZK      -0.241000
     23 H201         2.2950   -28.2070    24.0280 hn         1 LZK       0.498000
     24 H202         1.8750   -28.2210    25.7080 hn         1 LZK       0.498000
     25 H16          2.6220   -24.0890    27.2460 h4         1 LZK       0.014100
     26 H5           3.5690   -22.0100    26.2190 ha         1 LZK       0.117000
     27 H131         4.4490   -22.6120    20.9110 hn         1 LZK       0.498500
     28 H132         4.6610   -21.0920    21.6900 hn         1 LZK       0.498500
     29 H9           6.9720   -18.4750    25.7660 ha         1 LZK       0.122000
     30 H451         8.2870   -20.4600    26.0320 h1         1 LZK       0.043200
     31 H452         7.1800   -20.2150    27.4110 h1         1 LZK       0.043200
     32 H453         7.7830   -21.8410    27.0290 h1         1 LZK       0.043200
     33 H7           3.8760   -17.2660    23.0700 ha         1 LZK       0.122000
     34 H431         1.6220   -18.0640    22.6940 h1         1 LZK       0.043200
     35 H432         2.6820   -18.2690    21.2730 h1         1 LZK       0.043200
     36 H433         1.2500   -19.2990    21.4730 h1         1 LZK       0.043200
     37 H14          5.8030   -16.7110    24.5020 ha         1 LZK       0.112000
@<TRIPOS>BOND
     1     1     2 1   
     2     1    23 1   
     3     1    24 1   
     4     2     3 ar  
     5     2     4 ar  
     6     3     7 ar  
     7     4     5 ar  
     8     5     6 ar  
     9     5    25 1   
    10     6     7 ar  
    11     6    11 ar  
    12     7     8 ar  
    13     8     9 ar  
    14     9    10 1   
    15     9    12 ar  
    16    10    27 1   
    17    10    28 1   
    18    11    12 ar  
    19    11    26 1   
    20    12    13 1   
    21    13    14 ar  
    22    13    17 ar  
    23    14    15 1   
    24    14    22 ar  
    25    15    16 1   
    26    16    30 1   
    27    16    31 1   
    28    16    32 1   
    29    17    18 1   
    30    17    20 ar  
    31    18    19 1   
    32    19    34 1   
    33    19    35 1   
    34    19    36 1   
    35    20    21 ar  
    36    20    33 1   
    37    21    22 ar  
    38    21    37 1   
    39    22    29 1   
@<TRIPOS>SUBSTRUCTURE
     1 LZK         1 TEMP              0 ****  ****    0 ROOT
