@<TRIPOS>MOLECULE
LZK
   37    39     1     0     0
SMALL
bcc


@<TRIPOS>ATOM
      1 N20          1.9730   -27.6240    24.7180 nv         1 LZK      -0.957500
      2 C19          2.3360   -26.3350    24.8420 ca         1 LZK       0.925900
      3 N17          3.0840   -25.8070    23.8880 nb         1 LZK      -0.788000
      4 N18          1.8660   -25.6990    25.9460 nb         1 LZK      -0.784000
      5 C16          2.1930   -24.4390    26.0630 ca         1 LZK       0.525200
      6 C11          2.9770   -23.7600    25.1250 ca         1 LZK      -0.435600
      7 C15          3.4170   -24.5140    24.0110 ca         1 LZK       0.780300
      8 N12          4.1750   -23.9750    23.0470 nb         1 LZK      -0.783000
      9 C6           4.5230   -22.7030    23.1480 ca         1 LZK       0.759200
     10 N13          5.2940   -22.1980    22.1760 nv         1 LZK      -0.967500
     11 C5           3.3580   -22.4030    25.2120 ca         1 LZK       0.018000
     12 C2           4.1300   -21.8510    24.2410 cp         1 LZK      -0.200300
     13 C1           4.5670   -20.4400    24.2830 cp         1 LZK      -0.129000
     14 C4           5.7560   -20.0880    24.9310 ca         1 LZK       0.187100
     15 O1           6.4330   -21.1060    25.4870 os         1 LZK      -0.304400
     16 C45          7.6410   -20.8280    26.1690 c3         1 LZK       0.123200
     17 C3           3.8010   -19.4450    23.6650 ca         1 LZK       0.187100
     18 O7           2.6840   -19.8730    23.0560 os         1 LZK      -0.304400
     19 C43          1.8830   -18.9310    22.3690 c3         1 LZK       0.123200
     20 C7           4.2090   -18.1120    23.7020 ca         1 LZK      -0.259000
     21 C14          5.3890   -17.7940    24.3560 ca         1 LZK      -0.047000
     22 C9           6.1720   -18.7580    24.9710 ca         1 LZK      -0.259000
     23 H201         2.3970   -28.1920    24.0070 hn         1 LZK       0.442800
     24 H202         1.5390   -28.0910    25.4950 hn         1 LZK       0.442800
     25 H16          1.8270   -23.9130    26.9410 h4         1 LZK       0.014100
     26 H5           3.0300   -21.8080    26.0560 ha         1 LZK       0.135000
     27 H131         5.5370   -22.7680    21.3840 hn         1 LZK       0.443300
     28 H132         5.5480   -21.2260    22.1550 hn         1 LZK       0.443300
     29 H9           7.0870   -18.4620    25.4650 ha         1 LZK       0.140000
     30 H451         8.3930   -20.3920    25.5070 h1         1 LZK       0.043200
     31 H452         7.4840   -20.1570    27.0170 h1         1 LZK       0.043200
     32 H453         8.0100   -21.7800    26.5400 h1         1 LZK       0.043200
     33 H7           3.6300   -17.3280    23.2350 ha         1 LZK       0.140000
     34 H431         1.4870   -18.1650    23.0400 h1         1 LZK       0.043200
     35 H432         2.4320   -18.4430    21.5610 h1         1 LZK       0.043200
     36 H433         1.0510   -19.4870    21.9450 h1         1 LZK       0.043200
     37 H14          5.7090   -16.7600    24.3860 ha         1 LZK       0.130000
@<TRIPOS>BOND
     1     1     2 1   
     2     1    23 1   
     3     1    24 1   
     4     2     3 ar  
     5     2     4 ar  
     6     3     7 ar  
     7     4     5 ar  
     8     5     6 ar  
     9     5    25 1   
    10     6     7 ar  
    11     6    11 ar  
    12     7     8 ar  
    13     8     9 ar  
    14     9    10 1   
    15     9    12 ar  
    16    10    27 1   
    17    10    28 1   
    18    11    12 ar  
    19    11    26 1   
    20    12    13 1   
    21    13    14 ar  
    22    13    17 ar  
    23    14    15 1   
    24    14    22 ar  
    25    15    16 1   
    26    16    30 1   
    27    16    31 1   
    28    16    32 1   
    29    17    18 1   
    30    17    20 ar  
    31    18    19 1   
    32    19    34 1   
    33    19    35 1   
    34    19    36 1   
    35    20    21 ar  
    36    20    33 1   
    37    21    22 ar  
    38    21    37 1   
    39    22    29 1   
@<TRIPOS>SUBSTRUCTURE
     1 LZK         1 TEMP              0 ****  ****    0 ROOT
