@<TRIPOS>MOLECULE
LZL
   37    40     1     0     0
SMALL
No Charge or Current Charge


@<TRIPOS>ATOM
      1 N22          1.8590   -27.6890    24.7080 nv         1 LZL      -1.060900
      2 C21          2.2900   -26.4110    24.8450 ca         1 LZL       0.399900
      3 N20          1.5850   -25.6360    25.6760 nb         1 LZL      -0.252000
      4 C15          2.0230   -24.3730    25.8030 ca         1 LZL       0.198900
      5 C9           3.1530   -23.9160    25.0980 ca         1 LZL      -0.307000
      6 C4           3.6020   -22.5980    25.2370 ca         1 LZL       0.025000
      7 N18          3.3740   -26.0750    24.1310 nb         1 LZL      -0.260000
      8 C12          3.8340   -24.8100    24.2420 ca         1 LZL       0.191000
      9 N6           4.9160   -24.3950    23.5590 nb         1 LZL      -0.262000
     10 C2           5.3790   -23.1280    23.6690 ca         1 LZL       0.430900
     11 N5           6.5360   -22.8870    22.8630 nh         1 LZL      -0.782300
     12 C11          7.2650   -21.5850    22.7800 c5         1 LZL       0.254000
     13 C17          8.3660   -21.9190    21.8060 c2         1 LZL      -0.237200
     14 C16          8.3100   -23.1810    21.3850 c2         1 LZL      -0.237200
     15 C10          7.1590   -23.9390    21.9940 c5         1 LZL       0.254000
     16 C1           4.7360   -22.1710    24.5180 cp         1 LZL      -0.169000
     17 C3           5.1720   -20.7600    24.7010 cp         1 LZL      -0.030000
     18 C8           4.6550   -19.7320    23.8790 ca         1 LZL      -0.103500
     19 C14          5.0570   -18.3970    24.0590 ca         1 LZL      -0.112500
     20 C19          5.9750   -18.0710    25.0720 ca         1 LZL      -0.109000
     21 C13          6.4850   -19.0790    25.9080 ca         1 LZL      -0.112500
     22 C7           6.0820   -20.4130    25.7260 ca         1 LZL      -0.103500
     23 H221         2.4840   -28.3650    24.2740 hn         1 LZL       0.497500
     24 H222         1.1940   -28.0540    25.3870 hn         1 LZL       0.497500
     25 H15          1.4640   -23.7230    26.4740 h4         1 LZL       0.017100
     26 H4           3.0830   -21.9030    25.8950 ha         1 LZL       0.119000
     27 H111         6.6300   -20.7770    22.3900 h1         1 LZL       0.068950
     28 H112         7.6800   -21.2780    23.7500 h1         1 LZL       0.068950
     29 H101         7.5120   -24.8010    22.5790 h1         1 LZL       0.068950
     30 H102         6.4640   -24.3010    21.2220 h1         1 LZL       0.068950
     31 H17          9.1250   -21.2040    21.4830 ha         1 LZL       0.199000
     32 H16          9.0160   -23.6190    20.6770 ha         1 LZL       0.199000
     33 H8           3.9430   -19.9790    23.0950 ha         1 LZL       0.119000
     34 H7           6.4790   -21.1890    26.3780 ha         1 LZL       0.119000
     35 H14          4.6570   -17.6170    23.4150 ha         1 LZL       0.114500
     36 H19          6.2860   -17.0380    25.2120 ha         1 LZL       0.114000
     37 H13          7.1910   -18.8260    26.6960 ha         1 LZL       0.114500
@<TRIPOS>BOND
     1     1     2 1   
     2     1    23 1   
     3     1    24 1   
     4     2     3 ar  
     5     2     7 ar  
     6     3     4 ar  
     7     4     5 ar  
     8     4    25 1   
     9     5     6 ar  
    10     5     8 ar  
    11     6    16 ar  
    12     6    26 1   
    13     7     8 ar  
    14     8     9 ar  
    15     9    10 ar  
    16    10    11 1   
    17    10    16 ar  
    18    11    12 1   
    19    11    15 1   
    20    12    13 1   
    21    12    27 1   
    22    12    28 1   
    23    13    14 2   
    24    13    31 1   
    25    14    15 1   
    26    14    32 1   
    27    15    29 1   
    28    15    30 1   
    29    16    17 1   
    30    17    18 ar  
    31    17    22 ar  
    32    18    19 ar  
    33    18    33 1   
    34    19    20 ar  
    35    19    35 1   
    36    20    21 ar  
    37    20    36 1   
    38    21    22 ar  
    39    21    37 1   
    40    22    34 1   
@<TRIPOS>SUBSTRUCTURE
     1 LZL         1 TEMP              0 ****  ****    0 ROOT
