@<TRIPOS>MOLECULE
LZL
   37    40     1     0     0
SMALL
bcc


@<TRIPOS>ATOM
      1 N22          2.0500   -27.6890    24.7770 nv         1 LZL      -0.950500
      2 C21          2.4210   -26.3960    24.8210 ca         1 LZL       0.925900
      3 N20          1.5310   -25.5550    25.4120 nb         1 LZL      -0.778000
      4 C15          1.8690   -24.2940    25.4460 ca         1 LZL       0.527200
      5 C9           3.0650   -23.8100    24.9030 ca         1 LZL      -0.437600
      6 C4           3.5140   -22.4780    24.9620 ca         1 LZL       0.007000
      7 N18          3.5780   -26.0630    24.2780 nb         1 LZL      -0.786000
      8 C12          3.9150   -24.7640    24.3020 ca         1 LZL       0.782300
      9 N6           5.0690   -24.4120    23.7300 nb         1 LZL      -0.788000
     10 C2           5.4570   -23.1430    23.7270 ca         1 LZL       0.759200
     11 N5           6.5820   -22.8920    23.0280 nh         1 LZL      -0.782300
     12 C11          7.0860   -21.5870    22.6030 c5         1 LZL       0.254000
     13 C17          8.1420   -21.9520    21.6110 c2         1 LZL      -0.187200
     14 C16          8.2520   -23.2650    21.4800 c2         1 LZL      -0.187200
     15 C10          7.2650   -23.9850    22.3360 c5         1 LZL       0.254000
     16 C1           4.7140   -22.1140    24.4240 cp         1 LZL      -0.234300
     17 C3           5.2000   -20.7360    24.6730 cp         1 LZL      -0.030000
     18 C8           4.5580   -19.6370    24.1100 ca         1 LZL      -0.121500
     19 C14          4.9830   -18.3470    24.3980 ca         1 LZL      -0.130500
     20 C19          6.0540   -18.1410    25.2580 ca         1 LZL      -0.127000
     21 C13          6.6930   -19.2320    25.8340 ca         1 LZL      -0.130500
     22 C7           6.2660   -20.5200    25.5460 ca         1 LZL      -0.121500
     23 H221         2.7250   -28.3830    24.5100 hn         1 LZL       0.442300
     24 H222         1.2630   -27.9910    25.3230 hn         1 LZL       0.442300
     25 H15          1.1750   -23.6070    25.9260 h4         1 LZL       0.017100
     26 H4           2.9180   -21.7400    25.4870 ha         1 LZL       0.137000
     27 H111         6.2970   -20.9720    22.1590 h1         1 LZL       0.068950
     28 H112         7.5100   -21.0120    23.4300 h1         1 LZL       0.068950
     29 H101         7.7410   -24.6720    23.0430 h1         1 LZL       0.068950
     30 H102         6.5670   -24.5820    21.7420 h1         1 LZL       0.068950
     31 H17          8.7290   -21.2010    21.1030 ha         1 LZL       0.149000
     32 H16          8.9460   -23.7890    20.8380 ha         1 LZL       0.149000
     33 H8           3.7300   -19.7910    23.4280 ha         1 LZL       0.137000
     34 H7           6.7640   -21.3680    26.0020 ha         1 LZL       0.137000
     35 H14          4.4790   -17.5020    23.9480 ha         1 LZL       0.132500
     36 H19          6.3890   -17.1360    25.4790 ha         1 LZL       0.132000
     37 H13          7.5240   -19.0820    26.5100 ha         1 LZL       0.132500
@<TRIPOS>BOND
     1     1     2 1   
     2     1    23 1   
     3     1    24 1   
     4     2     3 ar  
     5     2     7 ar  
     6     3     4 ar  
     7     4     5 ar  
     8     4    25 1   
     9     5     6 ar  
    10     5     8 ar  
    11     6    16 ar  
    12     6    26 1   
    13     7     8 ar  
    14     8     9 ar  
    15     9    10 ar  
    16    10    11 1   
    17    10    16 ar  
    18    11    12 1   
    19    11    15 1   
    20    12    13 1   
    21    12    27 1   
    22    12    28 1   
    23    13    14 2   
    24    13    31 1   
    25    14    15 1   
    26    14    32 1   
    27    15    29 1   
    28    15    30 1   
    29    16    17 1   
    30    17    18 ar  
    31    17    22 ar  
    32    18    19 ar  
    33    18    33 1   
    34    19    20 ar  
    35    19    35 1   
    36    20    21 ar  
    37    20    36 1   
    38    21    22 ar  
    39    21    37 1   
    40    22    34 1   
@<TRIPOS>SUBSTRUCTURE
     1 LZL         1 TEMP              0 ****  ****    0 ROOT
