@<TRIPOS>MOLECULE
LZM
   15    16     1     0     0
SMALL
abcg2


@<TRIPOS>ATOM
      1 N1          24.3010     4.3540    62.8010 n1         1 LZM      -0.459000
      2 C2          25.2520     4.3710    63.4560 cg         1 LZM       0.335700
      3 C3          26.4070     4.3890    64.2530 cc         1 LZM      -0.199300
      4 C4          27.0320     3.3220    64.9210 cc         1 LZM       0.436500
      5 N5          28.1040     3.7000    65.5820 nd         1 LZM      -0.570100
      6 N6          28.1970     5.0170    65.3580 na         1 LZM       0.119900
      7 C7          29.1580     5.8300    65.8460 cc         1 LZM      -0.029000
      8 C8          29.0930     7.1470    65.5130 cd         1 LZM      -0.222000
      9 C9          28.0350     7.5830    64.6840 cd         1 LZM       0.386900
     10 N10         27.1080     6.7880    64.2140 nd         1 LZM      -0.628000
     11 C11         27.1930     5.5030    64.5540 cd         1 LZM       0.411500
     12 H4          26.7190     2.2890    64.9330 h4         1 LZM       0.061800
     13 H7          29.9170     5.3800    66.4680 h4         1 LZM       0.169000
     14 H8          29.8350     7.8400    65.8760 ha         1 LZM       0.148000
     15 H9          27.9690     8.6290    64.4090 h4         1 LZM       0.038100
@<TRIPOS>BOND
     1     1     2 3   
     2     2     3 1   
     3     3     4 1   
     4     3    11 2   
     5     4     5 2   
     6     4    12 1   
     7     5     6 1   
     8     6     7 1   
     9     6    11 1   
    10     7     8 2   
    11     7    13 1   
    12     8     9 1   
    13     8    14 1   
    14     9    10 2   
    15     9    15 1   
    16    10    11 1   
@<TRIPOS>SUBSTRUCTURE
     1 LZM         1 TEMP              0 ****  ****    0 ROOT
