@<TRIPOS>MOLECULE
LZM
   15    16     1     0     0
SMALL
No Charge or Current Charge


@<TRIPOS>ATOM
      1 N1          24.3040     4.3430    62.8060 n1         1 LZM      -0.459000
      2 C2          25.2680     4.4100    63.4600 cg         1 LZM       0.335700
      3 C3          26.4340     4.4520    64.2590 cc         1 LZM      -0.199300
      4 C4          27.0080     3.3440    64.9000 cc         1 LZM       0.436500
      5 N5          28.1050     3.6130    65.6020 nd         1 LZM      -0.570100
      6 N6          28.2470     4.9830    65.4000 na         1 LZM       0.119900
      7 C7          29.2400     5.8070    65.9080 cc         1 LZM      -0.029000
      8 C8          29.0840     7.1330    65.5090 cd         1 LZM      -0.222000
      9 C9          28.0000     7.5850    64.6580 cd         1 LZM       0.386900
     10 N10         26.9940     6.7740    64.1380 nd         1 LZM      -0.628000
     11 C11         27.2340     5.4900    64.5860 cd         1 LZM       0.411500
     12 H4          26.6500     2.3240    64.8750 h4         1 LZM       0.061800
     13 H7          30.0130     5.3850    66.5370 h4         1 LZM       0.169000
     14 H8          29.8050     7.8690    65.8480 ha         1 LZM       0.148000
     15 H9          27.9350     8.6300    64.3840 h4         1 LZM       0.038100
@<TRIPOS>BOND
     1     1     2 3   
     2     2     3 1   
     3     3     4 1   
     4     3    11 2   
     5     4     5 2   
     6     4    12 1   
     7     5     6 1   
     8     6     7 1   
     9     6    11 1   
    10     7     8 2   
    11     7    13 1   
    12     8     9 1   
    13     8    14 1   
    14     9    10 2   
    15     9    15 1   
    16    10    11 1   
@<TRIPOS>SUBSTRUCTURE
     1 LZM         1 TEMP              0 ****  ****    0 ROOT
