@<TRIPOS>MOLECULE
LZN
   52    55     1     0     0
SMALL
No Charge or Current Charge


@<TRIPOS>ATOM
      1 C13         17.5090    -4.9410    23.5770 cc         1 LZN       0.407400
      2 C18          8.1000    -3.4490    33.0720 cx         1 LZN      -0.093900
      3 C17          7.4100    -3.9400    31.8210 cx         1 LZN      -0.093900
      4 C16          8.1630    -2.6240    31.8000 cx         1 LZN      -0.251700
      5 C15          9.4700    -2.5420    31.0480 c          1 LZN       0.646100
      6 C19         17.6650     0.9510    31.9690 c3         1 LZN       0.096300
      7 C11         15.7010    -1.5090    26.1610 c3         1 LZN       0.152900
      8 C12         16.2340    -5.2240    25.2690 cd         1 LZN       0.582500
      9 C1          14.4260    -0.9640    31.0850 ca         1 LZN       0.131500
     10 N1          13.6910    -0.4760    32.1250 nb         1 LZN      -0.282000
     11 N2          12.4090    -0.8430    32.2930 nb         1 LZN      -0.421000
     12 C2          11.8170    -1.6970    31.4300 ca         1 LZN       0.465900
     13 C3          12.5110    -2.2470    30.3440 ca         1 LZN      -0.222000
     14 C4          13.8600    -1.8970    30.1660 ca         1 LZN       0.392000
     15 C5          15.8600    -0.4700    30.9320 c          1 LZN       0.518600
     16 O1          16.5810    -0.7650    29.9820 o          1 LZN      -0.640100
     17 N5          16.3240     0.3640    31.9310 ns         1 LZN      -0.474900
     18 C6          14.5680    -3.5630    28.3160 ca         1 LZN       0.578900
     19 N6          13.7650    -4.5260    28.7800 nb         1 LZN      -0.708000
     20 C7          13.7440    -5.6940    28.1100 ca         1 LZN       0.361900
     21 C8          14.5320    -5.9410    26.9760 ca         1 LZN      -0.167000
     22 C9          15.4010    -4.9430    26.4730 ca         1 LZN      -0.067500
     23 C10         15.4100    -3.7090    27.1760 ca         1 LZN       0.047100
     24 O2          16.2510    -2.6760    26.7990 os         1 LZN      -0.337100
     25 N7          16.9250    -4.2640    24.5470 nd         1 LZN      -0.671000
     26 N8          17.1720    -6.2650    23.7130 na         1 LZN      -0.050700
     27 N9          16.3610    -6.4550    24.7840 nc         1 LZN      -0.532800
     28 C14         17.5870    -7.3890    22.8600 c3         1 LZN       0.072900
     29 O3           9.5900    -2.9580    29.9060 o          1 LZN      -0.566100
     30 H13         18.1480    -4.5580    22.7890 h5         1 LZN       0.065100
     31 H20          8.9950    -3.9780    33.3930 hc         1 LZN       0.083700
     32 H19          6.3230    -3.9050    31.7950 hc         1 LZN       0.083700
     33 H18          7.8460    -4.7940    31.3050 hc         1 LZN       0.083700
     34 H17          7.5640    -1.7180    31.7700 hc         1 LZN       0.090700
     35 H1          17.7710     1.5680    32.8700 h1         1 LZN       0.042367
     36 H2          18.4180     0.1530    31.9870 h1         1 LZN       0.042367
     37 H3          17.8190     1.5780    31.0810 h1         1 LZN       0.042367
     38 H10         16.5000    -0.7970    25.9170 h1         1 LZN       0.041033
     39 H12         15.1930    -1.7840    25.2280 h1         1 LZN       0.041033
     40 H11         14.9780    -1.0020    26.8110 h1         1 LZN       0.041033
     41 H4          12.0220    -2.9220    29.6580 ha         1 LZN       0.197000
     42 H7          15.6740     0.5750    32.6820 hn         1 LZN       0.347500
     43 H8          13.0770    -6.4630    28.4990 h4         1 LZN       0.027100
     44 H9          14.4560    -6.9140    26.4970 ha         1 LZN       0.141000
     45 H15         16.7020    -7.8600    22.4150 h1         1 LZN       0.061033
     46 H16         18.2440    -7.0280    22.0590 h1         1 LZN       0.061033
     47 H14         18.1270    -8.1290    23.4630 h1         1 LZN       0.061033
     48 N3          14.6040    -2.4180    29.0930 nu         1 LZN      -0.930900
     49 N4          10.4770    -1.9430    31.7630 ns         1 LZN      -0.315900
     50 H21          7.4750    -3.0850    33.8840 hc         1 LZN       0.083700
     51 H5          15.4980    -1.9250    28.9740 hn         1 LZN       0.564000
     52 H6          10.2150    -1.6160    32.6810 hn         1 LZN       0.171000
@<TRIPOS>BOND
     1     1    25 2   
     2     1    26 1   
     3     1    30 1   
     4     2     3 1   
     5     2     4 1   
     6     2    31 1   
     7     2    50 1   
     8     3     4 1   
     9     3    32 1   
    10     3    33 1   
    11     4     5 1   
    12     4    34 1   
    13     5    29 2   
    14     5    49 1   
    15     6    17 1   
    16     6    35 1   
    17     6    36 1   
    18     6    37 1   
    19     7    24 1   
    20     7    38 1   
    21     7    39 1   
    22     7    40 1   
    23     8    22 1   
    24     8    25 1   
    25     8    27 2   
    26     9    10 ar  
    27     9    14 ar  
    28     9    15 1   
    29    10    11 ar  
    30    11    12 ar  
    31    12    13 ar  
    32    12    49 1   
    33    13    14 ar  
    34    13    41 1   
    35    14    48 1   
    36    15    16 2   
    37    15    17 1   
    38    17    42 1   
    39    18    19 ar  
    40    18    23 ar  
    41    18    48 1   
    42    19    20 ar  
    43    20    21 ar  
    44    20    43 1   
    45    21    22 ar  
    46    21    44 1   
    47    22    23 ar  
    48    23    24 1   
    49    26    27 1   
    50    26    28 1   
    51    28    45 1   
    52    28    46 1   
    53    28    47 1   
    54    48    51 1   
    55    49    52 1   
@<TRIPOS>SUBSTRUCTURE
     1 LZN         1 TEMP              0 ****  ****    0 ROOT
