@<TRIPOS>MOLECULE
LZN
   52    55     1     0     0
SMALL
abcg2


@<TRIPOS>ATOM
      1 C13         17.6580    -5.0950    23.9690 cc         1 LZN       0.407400
      2 C18          7.9340    -4.4190    32.4240 cx         1 LZN      -0.093900
      3 C17          7.3390    -3.3620    31.5730 cx         1 LZN      -0.093900
      4 C16          8.6050    -3.0700    32.3390 cx         1 LZN      -0.251700
      5 C15          9.8690    -2.9800    31.5680 c          1 LZN       0.646100
      6 C19         17.4090     1.4080    31.4790 c3         1 LZN       0.096300
      7 C11         16.1720    -1.7170    26.4000 c3         1 LZN       0.152900
      8 C12         16.1500    -5.1610    25.4080 cd         1 LZN       0.582500
      9 C1          14.4540    -0.8730    30.9940 ca         1 LZN       0.131500
     10 N1          13.7590    -0.3410    31.9780 nb         1 LZN      -0.282000
     11 N2          12.5700    -0.7420    32.3030 nb         1 LZN      -0.421000
     12 C2          12.0190    -1.7390    31.6040 ca         1 LZN       0.465900
     13 C3          12.6580    -2.3760    30.5490 ca         1 LZN      -0.222000
     14 C4          13.9370    -1.9440    30.2120 ca         1 LZN       0.392000
     15 C5          15.8050    -0.2730    30.7660 c          1 LZN       0.518600
     16 O1          16.5550    -0.6880    29.8790 o          1 LZN      -0.640100
     17 N5          16.1410     0.7260    31.5780 ns         1 LZN      -0.474900
     18 C6          14.4430    -3.5130    28.3550 ca         1 LZN       0.578900
     19 N6          13.3950    -4.2900    28.5370 nb         1 LZN      -0.708000
     20 C7          13.2260    -5.3250    27.7170 ca         1 LZN       0.361900
     21 C8          14.0950    -5.6380    26.7010 ca         1 LZN      -0.167000
     22 C9          15.2090    -4.8150    26.4780 ca         1 LZN      -0.067500
     23 C10         15.3780    -3.7210    27.3130 ca         1 LZN       0.047100
     24 O2          16.4220    -2.8670    27.2090 os         1 LZN      -0.337100
     25 N7          17.0960    -4.3470    24.8890 nd         1 LZN      -0.671000
     26 N8          17.0810    -6.2980    23.9390 na         1 LZN      -0.050700
     27 N9          16.1180    -6.3560    24.8500 nc         1 LZN      -0.532800
     28 C14         17.3860    -7.4290    23.0970 c3         1 LZN       0.072900
     29 O3          10.0890    -3.6600    30.5840 o          1 LZN      -0.566100
     30 H13         18.4660    -4.8110    23.3110 h5         1 LZN       0.065100
     31 H20          8.4300    -5.2490    31.9380 hc         1 LZN       0.083700
     32 H19          6.4430    -2.8610    31.9150 hc         1 LZN       0.083700
     33 H18          7.4230    -3.4620    30.4990 hc         1 LZN       0.083700
     34 H17          8.5120    -2.4250    33.2050 hc         1 LZN       0.090700
     35 H1          17.4450     2.1750    32.2470 h1         1 LZN       0.042367
     36 H2          18.2450     0.7260    31.6330 h1         1 LZN       0.042367
     37 H3          17.5320     1.8880    30.5080 h1         1 LZN       0.042367
     38 H10         17.0670    -1.1020    26.4430 h1         1 LZN       0.041033
     39 H12         15.9830    -2.0000    25.3640 h1         1 LZN       0.041033
     40 H11         15.3260    -1.1370    26.7770 h1         1 LZN       0.041033
     41 H4          12.1950    -3.1810    30.0140 ha         1 LZN       0.197000
     42 H7          15.4730     1.0070    32.2790 hn         1 LZN       0.347500
     43 H8          12.3490    -5.9370    27.8950 h4         1 LZN       0.027100
     44 H9          13.9140    -6.5000    26.0740 ha         1 LZN       0.141000
     45 H15         16.5110    -7.7090    22.5160 h1         1 LZN       0.061033
     46 H16         18.1890    -7.1530    22.4200 h1         1 LZN       0.061033
     47 H14         17.7050    -8.2740    23.7030 h1         1 LZN       0.061033
     48 N3          14.6930    -2.4580    29.2090 nu         1 LZN      -0.930900
     49 N4          10.7570    -2.0640    32.0630 ns         1 LZN      -0.315900
     50 H21          7.4580    -4.6620    33.3640 hc         1 LZN       0.083700
     51 H5          15.6020    -2.0020    29.1210 hn         1 LZN       0.564000
     52 H6          10.4720    -1.5220    32.8680 hn         1 LZN       0.171000
@<TRIPOS>BOND
     1     1    25 2   
     2     1    26 1   
     3     1    30 1   
     4     2     3 1   
     5     2     4 1   
     6     2    31 1   
     7     2    50 1   
     8     3     4 1   
     9     3    32 1   
    10     3    33 1   
    11     4     5 1   
    12     4    34 1   
    13     5    29 2   
    14     5    49 1   
    15     6    17 1   
    16     6    35 1   
    17     6    36 1   
    18     6    37 1   
    19     7    24 1   
    20     7    38 1   
    21     7    39 1   
    22     7    40 1   
    23     8    22 1   
    24     8    25 1   
    25     8    27 2   
    26     9    10 ar  
    27     9    14 ar  
    28     9    15 1   
    29    10    11 ar  
    30    11    12 ar  
    31    12    13 ar  
    32    12    49 1   
    33    13    14 ar  
    34    13    41 1   
    35    14    48 1   
    36    15    16 2   
    37    15    17 1   
    38    17    42 1   
    39    18    19 ar  
    40    18    23 ar  
    41    18    48 1   
    42    19    20 ar  
    43    20    21 ar  
    44    20    43 1   
    45    21    22 ar  
    46    21    44 1   
    47    22    23 ar  
    48    23    24 1   
    49    26    27 1   
    50    26    28 1   
    51    28    45 1   
    52    28    46 1   
    53    28    47 1   
    54    48    51 1   
    55    49    52 1   
@<TRIPOS>SUBSTRUCTURE
     1 LZN         1 TEMP              0 ****  ****    0 ROOT
