@<TRIPOS>MOLECULE
LZO
   34    35     1     0     0
SMALL
No Charge or Current Charge


@<TRIPOS>ATOM
      1 C1          38.4280     7.7250   116.5770 c3         1 LZO      -0.208400
      2 C2          37.1450     8.5820   116.4270 c3         1 LZO      -0.045400
      3 O1          39.2120     7.0050   114.4490 o          1 LZO      -0.744000
      4 C3          37.1360     9.5220   115.1960 c3         1 LZO      -0.069400
      5 C4          35.8600    10.3870   115.0810 c3         1 LZO      -0.018100
      6 C5          35.6700    11.3410   116.2320 cc         1 LZO      -0.146300
      7 C6          34.7300    11.2720   117.2340 cd         1 LZO      -0.163000
      8 O2          39.0030    16.4580   119.6830 oh         1 LZO      -0.534100
      9 C7          34.8170    12.3310   118.1780 cd         1 LZO      -0.109000
     10 C9          36.1170    14.3760   118.7360 ca         1 LZO       0.055000
     11 C8          35.8250    13.2170   117.8870 cc         1 LZO      -0.196000
     12 C10         37.4320    14.8780   118.8130 ca         1 LZO      -0.145000
     13 C11         37.7260    15.9890   119.6170 ca         1 LZO       0.140100
     14 C12         36.7110    16.6170   120.3530 ca         1 LZO      -0.219000
     15 C13         35.3960    16.1310   120.2810 ca         1 LZO      -0.074000
     16 C14         35.1010    15.0170   119.4760 ca         1 LZO      -0.143000
     17 S           36.7140    12.7490   116.4410 ss         1 LZO       0.202000
     18 C           38.5630     6.6960   115.4370 c          1 LZO       0.714000
     19 O           37.9990     5.6200   115.5640 o          1 LZO      -0.744000
     20 H1          38.3040     7.2040   117.5340 hc         1 LZO       0.018200
     21 H2          39.2710     8.4270   116.5700 hc         1 LZO       0.018200
     22 H3          37.0330     9.1880   117.3350 hc         1 LZO       0.019200
     23 H4          36.2710     7.9210   116.3840 hc         1 LZO       0.019200
     24 H5          37.2250     8.9230   114.2820 hc         1 LZO       0.052200
     25 H6          38.0150    10.1770   115.2300 hc         1 LZO       0.052200
     26 H7          35.9050    10.9570   114.1450 hc         1 LZO       0.045700
     27 H8          34.9880     9.7280   114.9950 hc         1 LZO       0.045700
     28 H9          33.9930    10.4770   117.3020 ha         1 LZO       0.132000
     29 H10         39.0150    17.2300   120.2880 ho         1 LZO       0.458000
     30 H11         34.1590    12.4110   119.0380 ha         1 LZO       0.122000
     31 H12         38.2330    14.4020   118.2550 ha         1 LZO       0.138000
     32 H13         36.9320    17.4790   120.9780 ha         1 LZO       0.105000
     33 H14         34.6030    16.6190   120.8460 ha         1 LZO       0.104000
     34 H15         34.0740    14.6660   119.4210 ha         1 LZO       0.116000
@<TRIPOS>BOND
     1     1     2 1   
     2     1    18 1   
     3     1    20 1   
     4     1    21 1   
     5     2     4 1   
     6     2    22 1   
     7     2    23 1   
     8     3    18 1   
     9     4     5 1   
    10     4    24 1   
    11     4    25 1   
    12     5     6 1   
    13     5    26 1   
    14     5    27 1   
    15     6     7 2   
    16     6    17 1   
    17     7     9 1   
    18     7    28 1   
    19     8    13 1   
    20     8    29 1   
    21     9    11 2   
    22     9    30 1   
    23    10    11 1   
    24    10    12 ar  
    25    10    16 ar  
    26    11    17 1   
    27    12    13 ar  
    28    12    31 1   
    29    13    14 ar  
    30    14    15 ar  
    31    14    32 1   
    32    15    16 ar  
    33    15    33 1   
    34    16    34 1   
    35    18    19 1   
@<TRIPOS>SUBSTRUCTURE
     1 LZO         1 TEMP              0 ****  ****    0 ROOT
