@<TRIPOS>MOLECULE
LZO
   34    35     1     0     0
SMALL
bcc


@<TRIPOS>ATOM
      1 C1          38.4700     7.9590   116.5960 c3         1 LZO      -0.208400
      2 C2          37.1310     8.6680   116.4490 c3         1 LZO      -0.045400
      3 O1          40.0340     6.7190   115.3080 o          1 LZO      -0.849300
      4 C3          37.0710     9.5890   115.2380 c3         1 LZO      -0.069400
      5 C4          35.7560    10.3650   115.1260 c3         1 LZO      -0.018100
      6 C5          35.5060    11.2880   116.2720 cc         1 LZO      -0.001400
      7 C6          34.5040    11.2610   117.1960 cd         1 LZO      -0.181000
      8 O2          39.0750    16.1990   119.4610 oh         1 LZO      -0.495100
      9 C7          34.5970    12.2950   118.1640 cd         1 LZO      -0.127000
     10 C9          36.0790    14.2790   118.7620 ca         1 LZO       0.055000
     11 C8          35.6760    13.1120   117.9790 cc         1 LZO      -0.051100
     12 C10         37.4030    14.7170   118.7690 ca         1 LZO      -0.163000
     13 C11         37.7790    15.8340   119.5090 ca         1 LZO       0.140100
     14 C12         36.8300    16.5180   120.2640 ca         1 LZO      -0.237000
     15 C13         35.5140    16.0780   120.2600 ca         1 LZO      -0.092000
     16 C14         35.1290    14.9760   119.5150 ca         1 LZO      -0.161000
     17 S           36.5800    12.6000   116.5950 ss         1 LZO      -0.087800
     18 C           38.8190     6.9380   115.4940 c          1 LZO       0.924600
     19 O           37.8670     6.3830   114.9060 o          1 LZO      -0.849300
     20 H1          38.4800     7.4180   117.5500 hc         1 LZO       0.018200
     21 H2          39.2720     8.6990   116.6750 hc         1 LZO       0.018200
     22 H3          36.9360     9.2530   117.3530 hc         1 LZO       0.019200
     23 H4          36.3250     7.9330   116.3820 hc         1 LZO       0.019200
     24 H5          37.2000     9.0010   114.3270 hc         1 LZO       0.052200
     25 H6          37.9090    10.2930   115.2680 hc         1 LZO       0.052200
     26 H7          35.7470    10.9280   114.1890 hc         1 LZO       0.045700
     27 H8          34.9190     9.6630   115.0720 hc         1 LZO       0.045700
     28 H9          33.7210    10.5140   117.1890 ha         1 LZO       0.150000
     29 H10         39.2310    16.9720   120.0160 ho         1 LZO       0.419000
     30 H11         33.8960    12.4130   118.9790 ha         1 LZO       0.140000
     31 H12         38.1650    14.1840   118.2100 ha         1 LZO       0.156000
     32 H13         37.1130    17.3870   120.8470 ha         1 LZO       0.123000
     33 H14         34.7760    16.6140   120.8410 ha         1 LZO       0.122000
     34 H15         34.0920    14.6710   119.5050 ha         1 LZO       0.134000
@<TRIPOS>BOND
     1     1     2 1   
     2     1    18 1   
     3     1    20 1   
     4     1    21 1   
     5     2     4 1   
     6     2    22 1   
     7     2    23 1   
     8     3    18 1   
     9     4     5 1   
    10     4    24 1   
    11     4    25 1   
    12     5     6 1   
    13     5    26 1   
    14     5    27 1   
    15     6     7 2   
    16     6    17 1   
    17     7     9 1   
    18     7    28 1   
    19     8    13 1   
    20     8    29 1   
    21     9    11 2   
    22     9    30 1   
    23    10    11 1   
    24    10    12 ar  
    25    10    16 ar  
    26    11    17 1   
    27    12    13 ar  
    28    12    31 1   
    29    13    14 ar  
    30    14    15 ar  
    31    14    32 1   
    32    15    16 ar  
    33    15    33 1   
    34    16    34 1   
    35    18    19 1   
@<TRIPOS>SUBSTRUCTURE
     1 LZO         1 TEMP              0 ****  ****    0 ROOT
