@<TRIPOS>MOLECULE
LZP
   82    86     1     0     0
SMALL
bcc


@<TRIPOS>ATOM
      1 C1           9.8680     2.4930     4.6280 ca         1 LZP      -0.132000
      2 C2           9.7940     1.3690     5.4390 ca         1 LZP      -0.114000
      3 C3           9.5410     0.1240     4.8750 ca         1 LZP      -0.132000
      4 C4           9.3640     0.0060     3.5040 ca         1 LZP      -0.101250
      5 C5           9.4350     1.1290     2.6840 ca         1 LZP      -0.099300
      6 C6           9.6860     2.3710     3.2560 ca         1 LZP      -0.101250
      7 C7           9.2210     1.0000     1.2070 c3         1 LZP       0.188700
      8 C8           7.3810     0.6760    -0.2700 ca         1 LZP       0.134100
      9 C9           8.1910     0.7350    -1.4030 ca         1 LZP      -0.191000
     10 C10          7.6260     0.5870    -2.6630 ca         1 LZP      -0.102000
     11 C11          6.2660     0.3820    -2.8160 ca         1 LZP      -0.130000
     12 C12          5.4540     0.3180    -1.6820 ca         1 LZP      -0.140600
     13 C13          6.0130     0.4630    -0.4170 ca         1 LZP      -0.106000
     14 C14          3.9900     0.0980    -1.7840 c          1 LZP       0.602700
     15 C15          3.3630     0.0640    -3.1560 c3         1 LZP      -0.282400
     16 C16          1.8830    -0.1930    -3.0740 c          1 LZP       0.520100
     17 C17          1.4740    -1.4960    -2.3890 c          1 LZP       0.592100
     18 C18         -0.0820    -0.3110    -0.8670 c6         1 LZP       0.075750
     19 C19          0.1210    -0.3930     0.6420 c6         1 LZP       0.075750
     20 C20          0.1480    -2.8210     0.4980 c6         1 LZP       0.075750
     21 C21         -0.0790    -2.7360    -1.0010 c6         1 LZP       0.075750
     22 N1           0.4540    -1.4900    -1.5240 n          1 LZP      -0.441800
     23 N2          -0.3940    -1.6470     1.1620 n          1 LZP      -0.441800
     24 O1           7.8260     0.8160     0.9930 os         1 LZP      -0.314400
     25 O2           3.2950    -0.0280    -0.7970 o          1 LZP      -0.533100
     26 O3           1.0640     0.4810    -3.6440 o          1 LZP      -0.487100
     27 O4           2.0570    -2.4950    -2.7840 o          1 LZP      -0.602600
     28 C22         -1.3880    -1.7670     2.0480 c          1 LZP       0.592100
     29 C23         -1.7820    -0.5600     2.8970 c          1 LZP       0.520100
     30 C24         -3.2610    -0.3340     3.0640 c3         1 LZP      -0.282400
     31 C25         -3.9280    -0.1210     1.7270 c          1 LZP       0.602700
     32 C26         -6.0050     0.2970     0.4610 ca         1 LZP      -0.106000
     33 C27         -5.3980     0.0790     1.6920 ca         1 LZP      -0.140600
     34 C28         -6.1680     0.0530     2.8560 ca         1 LZP      -0.130000
     35 C29         -7.5350     0.2460     2.7660 ca         1 LZP      -0.102000
     36 C30         -8.1490     0.4630     1.5400 ca         1 LZP      -0.191000
     37 C31         -7.3810     0.4910     0.3760 ca         1 LZP       0.134100
     38 C32         -9.2820     0.8670    -1.0070 c3         1 LZP       0.188700
     39 C33         -9.6380    -0.0160    -3.3280 ca         1 LZP      -0.101250
     40 C34         -9.5560     1.0740    -2.4650 ca         1 LZP      -0.099300
     41 C35         -9.7060     2.3570    -2.9800 ca         1 LZP      -0.101250
     42 C36         -9.9380     2.5520    -4.3360 ca         1 LZP      -0.132000
     43 C37        -10.0180     1.4590    -5.1890 ca         1 LZP      -0.114000
     44 C38         -9.8680     0.1740    -4.6830 ca         1 LZP      -0.132000
     45 O5          -1.9560    -2.8120     2.3340 o          1 LZP      -0.602600
     46 O6          -0.9460     0.0550     3.5070 o          1 LZP      -0.487100
     47 O7          -3.2590    -0.1010     0.7150 o          1 LZP      -0.533100
     48 O8          -7.8770     0.6970    -0.8580 os         1 LZP      -0.314400
     49 H1          10.0680     3.4640     5.0620 ha         1 LZP       0.133500
     50 H2           9.9340     1.4610     6.5080 ha         1 LZP       0.132000
     51 H3           9.4870    -0.7550     5.5040 ha         1 LZP       0.133500
     52 H4           9.1730    -0.9690     3.0700 ha         1 LZP       0.132500
     53 H6           9.7430     3.2500     2.6250 ha         1 LZP       0.132500
     54 H7           9.5710     1.9000     0.6900 h1         1 LZP       0.041450
     55 H7A          9.7770     0.1450     0.8080 h1         1 LZP       0.041450
     56 H9           9.2580     0.8970    -1.3270 ha         1 LZP       0.137000
     57 H10          8.2650     0.6360    -3.5340 ha         1 LZP       0.135000
     58 H11          5.8560     0.2710    -3.8100 ha         1 LZP       0.135000
     59 H13          5.3870     0.4160     0.4650 ha         1 LZP       0.167500
     60 H15          3.5470     1.0070    -3.6740 hc         1 LZP       0.103200
     61 H15A         3.8260    -0.7210    -3.7620 hc         1 LZP       0.103200
     62 H18         -1.1480    -0.2300    -1.0910 h1         1 LZP       0.073325
     63 H18A         0.4000     0.5940    -1.2230 h1         1 LZP       0.073325
     64 H19          1.1850    -0.3170     0.8760 h1         1 LZP       0.073325
     65 H19A        -0.3800     0.4570     1.0940 h1         1 LZP       0.073325
     66 H20         -0.3200    -3.7180     0.8940 h1         1 LZP       0.073325
     67 H20A         1.2200    -2.8780     0.7100 h1         1 LZP       0.073325
     68 H21          0.3950    -3.5790    -1.4970 h1         1 LZP       0.073325
     69 H21A        -1.1500    -2.7760    -1.2180 h1         1 LZP       0.073325
     70 H24         -3.6980    -1.2010     3.5690 hc         1 LZP       0.103200
     71 H24A        -3.4300     0.5270     3.7130 hc         1 LZP       0.103200
     72 H26         -5.4100     0.3180    -0.4440 ha         1 LZP       0.167500
     73 H28         -5.7200    -0.1150     3.8250 ha         1 LZP       0.135000
     74 H29         -8.1420     0.2290     3.6610 ha         1 LZP       0.135000
     75 H30         -9.2200     0.6090     1.5130 ha         1 LZP       0.137000
     76 H32         -9.6250     1.7310    -0.4290 h1         1 LZP       0.041450
     77 H32A        -9.8100    -0.0180    -0.6360 h1         1 LZP       0.041450
     78 H35         -9.6450     3.2120    -2.3170 ha         1 LZP       0.132500
     79 H36        -10.0590     3.5550    -4.7240 ha         1 LZP       0.133500
     80 H37        -10.1990     1.6080    -6.2450 ha         1 LZP       0.132000
     81 H38         -9.9340    -0.6800    -5.3440 ha         1 LZP       0.133500
     82 H33         -9.5270    -1.0210    -2.9370 ha         1 LZP       0.132500
@<TRIPOS>BOND
     1     1     2 ar  
     2     1     6 ar  
     3     1    49 1   
     4     2     3 ar  
     5     2    50 1   
     6     3     4 ar  
     7     3    51 1   
     8     4     5 ar  
     9     4    52 1   
    10     5     6 ar  
    11     5     7 1   
    12     6    53 1   
    13     7    24 1   
    14     7    54 1   
    15     7    55 1   
    16     8     9 ar  
    17     8    13 ar  
    18     8    24 1   
    19     9    10 ar  
    20     9    56 1   
    21    10    11 ar  
    22    10    57 1   
    23    11    12 ar  
    24    11    58 1   
    25    12    13 ar  
    26    12    14 1   
    27    13    59 1   
    28    14    15 1   
    29    14    25 2   
    30    15    16 1   
    31    15    60 1   
    32    15    61 1   
    33    16    17 1   
    34    16    26 2   
    35    17    22 1   
    36    17    27 2   
    37    18    19 1   
    38    18    22 1   
    39    18    62 1   
    40    18    63 1   
    41    19    23 1   
    42    19    64 1   
    43    19    65 1   
    44    20    21 1   
    45    20    23 1   
    46    20    66 1   
    47    20    67 1   
    48    21    22 1   
    49    21    68 1   
    50    21    69 1   
    51    23    28 1   
    52    28    29 1   
    53    28    45 2   
    54    29    30 1   
    55    29    46 2   
    56    30    31 1   
    57    30    70 1   
    58    30    71 1   
    59    31    33 1   
    60    31    47 2   
    61    32    33 ar  
    62    32    37 ar  
    63    32    72 1   
    64    33    34 ar  
    65    34    35 ar  
    66    34    73 1   
    67    35    36 ar  
    68    35    74 1   
    69    36    37 ar  
    70    36    75 1   
    71    37    48 1   
    72    38    40 1   
    73    38    48 1   
    74    38    76 1   
    75    38    77 1   
    76    39    40 ar  
    77    39    44 ar  
    78    39    82 1   
    79    40    41 ar  
    80    41    42 ar  
    81    41    78 1   
    82    42    43 ar  
    83    42    79 1   
    84    43    44 ar  
    85    43    80 1   
    86    44    81 1   
@<TRIPOS>SUBSTRUCTURE
     1 LZP         1 TEMP              0 ****  ****    0 ROOT
