@<TRIPOS>MOLECULE
LZP
   82    86     1     0     0
SMALL
No Charge or Current Charge


@<TRIPOS>ATOM
      1 C1           5.5880     2.6210     3.6240 ca         1 LZP      -0.114000
      2 C2           5.1080     2.1400     4.8550 ca         1 LZP      -0.096000
      3 C3           4.5390     0.8570     4.9320 ca         1 LZP      -0.114000
      4 C4           4.4490     0.0550     3.7810 ca         1 LZP      -0.083250
      5 C5           4.9250     0.5320     2.5420 ca         1 LZP      -0.099300
      6 C6           5.4980     1.8190     2.4720 ca         1 LZP      -0.083250
      7 C7           4.8310    -0.3360     1.2930 c3         1 LZP       0.211900
      8 C8           3.8120    -0.1650    -0.9460 ca         1 LZP       0.134100
      9 C9           4.2220    -1.4630    -1.3170 ca         1 LZP      -0.173000
     10 C10          3.8470    -1.9830    -2.5660 ca         1 LZP      -0.084000
     11 C11          3.0480    -1.2260    -3.4390 ca         1 LZP      -0.112000
     12 C12          2.6190     0.0720    -3.0760 ca         1 LZP      -0.140600
     13 C13          3.0330     0.5970    -1.8320 ca         1 LZP      -0.088000
     14 C14          1.6880     0.8920    -3.9430 c          1 LZP       0.602700
     15 C15          0.5580     0.1940    -4.6800 c3         1 LZP      -0.282400
     16 C16         -0.5270    -0.0300    -3.6350 c          1 LZP       0.520100
     17 C17         -0.3510    -1.3110    -2.6950 c          1 LZP       0.525100
     18 C18         -0.2240     0.1870    -0.6490 c6         1 LZP       0.075750
     19 C19          0.4920     0.3920     0.7150 c6         1 LZP       0.075750
     20 C20          0.9600    -2.0610     0.8270 c6         1 LZP       0.075750
     21 C21          0.0730    -2.2930    -0.4120 c6         1 LZP       0.075750
     22 N1          -0.0150    -1.1260    -1.3250 n          1 LZP      -0.374800
     23 N2           0.6380    -0.8180     1.5700 n          1 LZP      -0.374800
     24 O1           4.1180     0.3900     0.2780 os         1 LZP      -0.337600
     25 O2           1.7670     2.1130    -3.9620 o          1 LZP      -0.533100
     26 O3          -1.4420     0.7750    -3.4800 o          1 LZP      -0.487100
     27 O4          -0.4600    -2.4430    -3.1660 o          1 LZP      -0.602600
     28 C22          0.9130    -0.7140     2.9600 c          1 LZP       0.525100
     29 C23          0.6510     0.6740     3.7060 c          1 LZP       0.520100
     30 C24         -0.5670     0.7330     4.6190 c3         1 LZP      -0.282400
     31 C25         -1.7090     1.2460     3.7550 c          1 LZP       0.602700
     32 C26         -3.0870     0.8860     1.6680 ca         1 LZP      -0.088000
     33 C27         -2.4170     0.3200     2.7790 ca         1 LZP      -0.140600
     34 C28         -2.4070    -1.0920     2.9040 ca         1 LZP      -0.112000
     35 C29         -3.0290    -1.9000     1.9380 ca         1 LZP      -0.084000
     36 C30         -3.6710    -1.3230     0.8320 ca         1 LZP      -0.173000
     37 C31         -3.7040     0.0790     0.6980 ca         1 LZP       0.134100
     38 C32         -4.8980    -0.0220    -1.4590 c3         1 LZP       0.211900
     39 C33         -4.9150     0.9930    -3.7960 ca         1 LZP      -0.083250
     40 C34         -5.4290     0.9740    -2.4830 ca         1 LZP      -0.099300
     41 C35         -6.4430     1.8850    -2.1250 ca         1 LZP      -0.083250
     42 C36         -6.9340     2.8070    -3.0660 ca         1 LZP      -0.114000
     43 C37         -6.4150     2.8240    -4.3720 ca         1 LZP      -0.096000
     44 C38         -5.4060     1.9160    -4.7360 ca         1 LZP      -0.114000
     45 O5           1.2980    -1.6940     3.5970 o          1 LZP      -0.602600
     46 O6           1.3610     1.6590     3.5230 o          1 LZP      -0.487100
     47 O7          -1.9810     2.4390     3.7830 o          1 LZP      -0.533100
     48 O8          -4.2980     0.7090    -0.3760 os         1 LZP      -0.337600
     49 H1           6.0310     3.6130     3.5620 ha         1 LZP       0.115500
     50 H2           5.1790     2.7600     5.7460 ha         1 LZP       0.114000
     51 H3           4.1690     0.4830     5.8850 ha         1 LZP       0.115500
     52 H4           4.0100    -0.9390     3.8530 ha         1 LZP       0.114500
     53 H6           5.8720     2.1980     1.5230 ha         1 LZP       0.114500
     54 H7           5.8440    -0.5850     0.9500 h1         1 LZP       0.041450
     55 H7A          4.3080    -1.2720     1.5340 h1         1 LZP       0.041450
     56 H9           4.8290    -2.0760    -0.6570 ha         1 LZP       0.119000
     57 H10          4.1700    -2.9800    -2.8560 ha         1 LZP       0.117000
     58 H11          2.7810    -1.6610    -4.3990 ha         1 LZP       0.117000
     59 H13          2.7200     1.5930    -1.5270 ha         1 LZP       0.149500
     60 H15          0.1800     0.8320    -5.4850 hc         1 LZP       0.103200
     61 H15A         0.8950    -0.7930    -5.0020 hc         1 LZP       0.103200
     62 H18         -1.3030     0.3030    -0.4870 h1         1 LZP       0.073325
     63 H18A         0.0810     1.0100    -1.3100 h1         1 LZP       0.073325
     64 H19          1.5000     0.7820     0.5200 h1         1 LZP       0.073325
     65 H19A        -0.0460     1.1830     1.2550 h1         1 LZP       0.073325
     66 H20          0.8630    -2.9340     1.4880 h1         1 LZP       0.073325
     67 H20A         2.0100    -2.0130     0.5070 h1         1 LZP       0.073325
     68 H21          0.4640    -3.1660    -0.9540 h1         1 LZP       0.073325
     69 H21A        -0.9420    -2.5480    -0.0760 h1         1 LZP       0.073325
     70 H24         -0.7810    -0.2840     4.9510 hc         1 LZP       0.103200
     71 H24A        -0.3790     1.4370     5.4360 hc         1 LZP       0.103200
     72 H26         -3.1140     1.9650     1.5340 ha         1 LZP       0.149500
     73 H28         -1.9280    -1.5890     3.7410 ha         1 LZP       0.117000
     74 H29         -3.0090    -2.9830     2.0470 ha         1 LZP       0.117000
     75 H30         -4.1360    -1.9750     0.0990 ha         1 LZP       0.119000
     76 H32         -5.7280    -0.6410    -1.0950 h1         1 LZP       0.041450
     77 H32A        -4.1590    -0.6830    -1.9320 h1         1 LZP       0.041450
     78 H35         -6.8470     1.8790    -1.1150 ha         1 LZP       0.114500
     79 H36         -7.7150     3.5080    -2.7830 ha         1 LZP       0.115500
     80 H37         -6.7940     3.5370    -5.1010 ha         1 LZP       0.114000
     81 H38         -5.0040     1.9270    -5.7470 ha         1 LZP       0.115500
     82 H33         -4.1340     0.2950    -4.0890 ha         1 LZP       0.114500
@<TRIPOS>BOND
     1     1     2 ar  
     2     1     6 ar  
     3     1    49 1   
     4     2     3 ar  
     5     2    50 1   
     6     3     4 ar  
     7     3    51 1   
     8     4     5 ar  
     9     4    52 1   
    10     5     6 ar  
    11     5     7 1   
    12     6    53 1   
    13     7    24 1   
    14     7    54 1   
    15     7    55 1   
    16     8     9 ar  
    17     8    13 ar  
    18     8    24 1   
    19     9    10 ar  
    20     9    56 1   
    21    10    11 ar  
    22    10    57 1   
    23    11    12 ar  
    24    11    58 1   
    25    12    13 ar  
    26    12    14 1   
    27    13    59 1   
    28    14    15 1   
    29    14    25 2   
    30    15    16 1   
    31    15    60 1   
    32    15    61 1   
    33    16    17 1   
    34    16    26 2   
    35    17    22 1   
    36    17    27 2   
    37    18    19 1   
    38    18    22 1   
    39    18    62 1   
    40    18    63 1   
    41    19    23 1   
    42    19    64 1   
    43    19    65 1   
    44    20    21 1   
    45    20    23 1   
    46    20    66 1   
    47    20    67 1   
    48    21    22 1   
    49    21    68 1   
    50    21    69 1   
    51    23    28 1   
    52    28    29 1   
    53    28    45 2   
    54    29    30 1   
    55    29    46 2   
    56    30    31 1   
    57    30    70 1   
    58    30    71 1   
    59    31    33 1   
    60    31    47 2   
    61    32    33 ar  
    62    32    37 ar  
    63    32    72 1   
    64    33    34 ar  
    65    34    35 ar  
    66    34    73 1   
    67    35    36 ar  
    68    35    74 1   
    69    36    37 ar  
    70    36    75 1   
    71    37    48 1   
    72    38    40 1   
    73    38    48 1   
    74    38    76 1   
    75    38    77 1   
    76    39    40 ar  
    77    39    44 ar  
    78    39    82 1   
    79    40    41 ar  
    80    41    42 ar  
    81    41    78 1   
    82    42    43 ar  
    83    42    79 1   
    84    43    44 ar  
    85    43    80 1   
    86    44    81 1   
@<TRIPOS>SUBSTRUCTURE
     1 LZP         1 TEMP              0 ****  ****    0 ROOT
