@<TRIPOS>MOLECULE
LZQ
   49    51     1     0     0
SMALL
abcg2


@<TRIPOS>ATOM
      1 C01         -1.3200    -1.6610     1.3660 ca         1 LZQ      -0.116000
      2 C07         -2.6110    -0.1470    -0.1850 c          1 LZQ       0.586700
      3 C09         -5.0890    -0.4650    -0.6040 c          1 LZQ       0.440100
      4 C10         -6.3920     0.0110     0.1010 c          1 LZQ       0.653000
      5 C13          4.1280    -1.4640     0.3090 ca         1 LZQ      -0.104800
      6 C19          1.8320     2.5190    -0.5930 ca         1 LZQ      -0.104800
      7 N01          2.2570     0.1730     0.1480 nh         1 LZQ      -0.845400
      8 O01         -6.3670    -0.0100     1.3440 o          1 LZQ      -0.695500
      9 C02         -0.1010    -2.0570     1.8950 ca         1 LZQ      -0.094000
     10 C14          5.1040    -2.0770     1.0930 ca         1 LZQ      -0.099250
     11 C20          1.6550     2.9330     0.7220 ca         1 LZQ      -0.099250
     12 O02         -2.6100     0.7710    -0.9760 o          1 LZQ      -0.516100
     13 O10         -5.0480    -0.6050    -1.8020 o          1 LZQ      -0.543100
     14 O11         -7.3110     0.3500    -0.6550 o          1 LZQ      -0.695500
     15 C03          1.0830    -1.4640     1.4970 ca         1 LZQ      -0.175000
     16 C15          5.7160    -3.2500     0.6750 ca         1 LZQ      -0.109500
     17 C21          1.2740     4.2400     1.0050 ca         1 LZQ      -0.109500
     18 C04          1.0870    -0.4280     0.5450 ca         1 LZQ       0.310000
     19 C16          5.3570    -3.8300    -0.5360 ca         1 LZQ      -0.112000
     20 C22          1.0650     5.1470    -0.0240 ca         1 LZQ      -0.112000
     21 C05         -0.1510    -0.0300     0.0230 ca         1 LZQ      -0.138000
     22 C17          4.3830    -3.2280    -1.3190 ca         1 LZQ      -0.109500
     23 C23          1.2370     4.7390    -1.3410 ca         1 LZQ      -0.109500
     24 C06         -1.3380    -0.6390     0.4200 ca         1 LZQ      -0.121600
     25 C18          3.7720    -2.0530    -0.8980 ca         1 LZQ      -0.099250
     26 C24          1.6150     3.4340    -1.6210 ca         1 LZQ      -0.099250
     27 C08         -3.8980    -0.8000     0.2640 c3         1 LZQ      -0.293400
     28 C11          3.5080    -0.1650     0.7780 c3         1 LZQ       0.281100
     29 C12          2.2710     1.1130    -0.9440 c3         1 LZQ       0.281100
     30 H01         -2.2270    -2.1470     1.6980 ha         1 LZQ       0.126000
     31 H02         -0.0670    -2.8510     2.6300 ha         1 LZQ       0.103000
     32 H14          5.3830    -1.6350     2.0430 ha         1 LZQ       0.114000
     33 H20          1.8060     2.2330     1.5340 ha         1 LZQ       0.114000
     34 H03          2.0060    -1.8280     1.9280 ha         1 LZQ       0.105000
     35 H15          6.4700    -3.7150     1.2980 ha         1 LZQ       0.109000
     36 H21          1.1370     4.5460     2.0340 ha         1 LZQ       0.109000
     37 H16          5.8300    -4.7480    -0.8620 ha         1 LZQ       0.107500
     38 H22          0.7670     6.1640     0.1990 ha         1 LZQ       0.107500
     39 H05         -0.2120     0.7760    -0.6940 ha         1 LZQ       0.138000
     40 H17          4.0920    -3.6750    -2.2620 ha         1 LZQ       0.109000
     41 H23          1.0740     5.4370    -2.1520 ha         1 LZQ       0.109000
     42 H18          3.0080    -1.6020    -1.5190 ha         1 LZQ       0.114000
     43 H24          1.7420     3.1220    -2.6510 ha         1 LZQ       0.114000
     44 H08         -3.7840    -1.8890     0.2610 hc         1 LZQ       0.080200
     45 H08A        -4.0840    -0.5250     1.3030 hc         1 LZQ       0.080200
     46 H11          3.3890    -0.1870     1.8660 h1         1 LZQ       0.052450
     47 H11A         4.2100     0.6510     0.5890 h1         1 LZQ       0.052450
     48 H12          1.6630     0.7400    -1.7750 h1         1 LZQ       0.052450
     49 H12A         3.2890     1.1520    -1.3380 h1         1 LZQ       0.052450
@<TRIPOS>BOND
     1     1     9 ar  
     2     1    24 ar  
     3     1    30 1   
     4     2    12 2   
     5     2    24 1   
     6     2    27 1   
     7     3     4 1   
     8     3    13 2   
     9     3    27 1   
    10     4     8 1   
    11     4    14 1   
    12     5    10 ar  
    13     5    25 ar  
    14     5    28 1   
    15     6    11 ar  
    16     6    26 ar  
    17     6    29 1   
    18     7    18 1   
    19     7    28 1   
    20     7    29 1   
    21     9    15 ar  
    22     9    31 1   
    23    10    16 ar  
    24    10    32 1   
    25    11    17 ar  
    26    11    33 1   
    27    15    18 ar  
    28    15    34 1   
    29    16    19 ar  
    30    16    35 1   
    31    17    20 ar  
    32    17    36 1   
    33    18    21 ar  
    34    19    22 ar  
    35    19    37 1   
    36    20    23 ar  
    37    20    38 1   
    38    21    24 ar  
    39    21    39 1   
    40    22    25 ar  
    41    22    40 1   
    42    23    26 ar  
    43    23    41 1   
    44    25    42 1   
    45    26    43 1   
    46    27    44 1   
    47    27    45 1   
    48    28    46 1   
    49    28    47 1   
    50    29    48 1   
    51    29    49 1   
@<TRIPOS>SUBSTRUCTURE
     1 LZQ         1 TEMP              0 ****  ****    0 ROOT
