@<TRIPOS>MOLECULE
LZQ
   49    51     1     0     0
SMALL
No Charge or Current Charge


@<TRIPOS>ATOM
      1 C01         -0.7310    -0.7030     2.0200 ca         1 LZQ      -0.116000
      2 C07         -2.2570    -0.0830     0.0490 c          1 LZQ       0.586700
      3 C09         -3.4180    -2.0320    -0.8510 c          1 LZQ       0.440100
      4 C10         -4.4870    -1.6840    -2.0210 c          1 LZQ       0.653000
      5 C13          3.6160    -1.6760    -0.4070 ca         1 LZQ      -0.104800
      6 C19          1.8840     3.0500    -0.0890 ca         1 LZQ      -0.104800
      7 N01          2.6600     0.6440    -0.1290 nh         1 LZQ      -0.845400
      8 O01         -5.5850    -1.2340    -1.7000 o          1 LZQ      -0.695500
      9 C02          0.5480    -0.7790     2.5960 ca         1 LZQ      -0.094000
     10 C14          4.0220    -2.6030     0.5750 ca         1 LZQ      -0.099250
     11 C20          2.3120     3.4900     1.1800 ca         1 LZQ      -0.099250
     12 O02         -2.4900     0.8190    -0.7450 o          1 LZQ      -0.516100
     13 O10         -2.6560    -2.9990    -0.9200 o          1 LZQ      -0.543100
     14 O11         -4.1710    -1.9080    -3.1870 o          1 LZQ      -0.695500
     15 C03          1.6710    -0.3370     1.8820 ca         1 LZQ      -0.175000
     16 C15          3.7660    -3.9750     0.4040 ca         1 LZQ      -0.109500
     17 C21          1.6000     4.4920     1.8620 ca         1 LZQ      -0.109500
     18 C04          1.5290     0.1910     0.5870 ca         1 LZQ       0.310000
     19 C16          3.1030    -4.4290    -0.7480 ca         1 LZQ      -0.112000
     20 C22          0.4550     5.0610     1.2800 ca         1 LZQ      -0.112000
     21 C05          0.2460     0.2610     0.0140 ca         1 LZQ      -0.138000
     22 C17          2.6960    -3.5110    -1.7310 ca         1 LZQ      -0.109500
     23 C23          0.0220     4.6280     0.0160 ca         1 LZQ      -0.109500
     24 C06         -0.8980    -0.1900     0.7120 ca         1 LZQ      -0.121600
     25 C18          2.9530    -2.1390    -1.5610 ca         1 LZQ      -0.099250
     26 C24          0.7340     3.6270    -0.6680 ca         1 LZQ      -0.099250
     27 C08         -3.3500    -1.0970     0.3560 c3         1 LZQ      -0.293400
     28 C11          3.8860    -0.1830    -0.2240 c3         1 LZQ       0.281100
     29 C12          2.6570     1.9550    -0.8230 c3         1 LZQ       0.281100
     30 H01         -1.5840    -1.0280     2.6100 ha         1 LZQ       0.126000
     31 H02          0.6660    -1.1730     3.6030 ha         1 LZQ       0.103000
     32 H14          4.5320    -2.2610     1.4730 ha         1 LZQ       0.114000
     33 H20          3.1940     3.0480     1.6370 ha         1 LZQ       0.114000
     34 H03          2.6530    -0.3900     2.3410 ha         1 LZQ       0.105000
     35 H15          4.0800    -4.6850     1.1660 ha         1 LZQ       0.109000
     36 H21          1.9350     4.8240     2.8420 ha         1 LZQ       0.109000
     37 H16          2.9040    -5.4910    -0.8790 ha         1 LZQ       0.107500
     38 H22         -0.0970     5.8350     1.8090 ha         1 LZQ       0.107500
     39 H05          0.1410     0.6570    -0.9910 ha         1 LZQ       0.138000
     40 H17          2.1810    -3.8610    -2.6230 ha         1 LZQ       0.109000
     41 H23         -0.8650     5.0660    -0.4350 ha         1 LZQ       0.109000
     42 H18          2.6310    -1.4320    -2.3220 ha         1 LZQ       0.114000
     43 H24          0.3890     3.2960    -1.6450 ha         1 LZQ       0.114000
     44 H08         -3.1080    -1.6950     1.2370 hc         1 LZQ       0.080200
     45 H08A        -4.2930    -0.5480     0.4460 hc         1 LZQ       0.080200
     46 H11          4.4970    -0.0310     0.6760 h1         1 LZQ       0.052450
     47 H11A         4.4950     0.1490    -1.0770 h1         1 LZQ       0.052450
     48 H12          2.2410     1.8300    -1.8320 h1         1 LZQ       0.052450
     49 H12A         3.6900     2.3100    -0.9500 h1         1 LZQ       0.052450
@<TRIPOS>BOND
     1     1     9 ar  
     2     1    24 ar  
     3     1    30 1   
     4     2    12 2   
     5     2    24 1   
     6     2    27 1   
     7     3     4 1   
     8     3    13 2   
     9     3    27 1   
    10     4     8 1   
    11     4    14 1   
    12     5    10 ar  
    13     5    25 ar  
    14     5    28 1   
    15     6    11 ar  
    16     6    26 ar  
    17     6    29 1   
    18     7    18 1   
    19     7    28 1   
    20     7    29 1   
    21     9    15 ar  
    22     9    31 1   
    23    10    16 ar  
    24    10    32 1   
    25    11    17 ar  
    26    11    33 1   
    27    15    18 ar  
    28    15    34 1   
    29    16    19 ar  
    30    16    35 1   
    31    17    20 ar  
    32    17    36 1   
    33    18    21 ar  
    34    19    22 ar  
    35    19    37 1   
    36    20    23 ar  
    37    20    38 1   
    38    21    24 ar  
    39    21    39 1   
    40    22    25 ar  
    41    22    40 1   
    42    23    26 ar  
    43    23    41 1   
    44    25    42 1   
    45    26    43 1   
    46    27    44 1   
    47    27    45 1   
    48    28    46 1   
    49    28    47 1   
    50    29    48 1   
    51    29    49 1   
@<TRIPOS>SUBSTRUCTURE
     1 LZQ         1 TEMP              0 ****  ****    0 ROOT
