@<TRIPOS>MOLECULE
LZR
   59    64     1     0     0
SMALL
bcc


@<TRIPOS>ATOM
      1 O29          5.8140    -1.8030     0.0780 o          1 LZR      -0.637500
      2 C26          5.4040    -0.6590     0.2600 c          1 LZR       0.700700
      3 N28          6.2720     0.4210     0.2540 n          1 LZR      -0.333000
      4 C30          7.6940     0.2030    -0.0240 c3         1 LZR       0.116000
      5 C31          8.0250     0.4140    -1.4750 cx         1 LZR      -0.162700
      6 C32          9.2160    -0.2840    -2.0580 cx         1 LZR      -0.118900
      7 C33          7.8330    -0.6880    -2.4700 cx         1 LZR      -0.118900
      8 C27          5.8460     1.6970     0.4410 cc         1 LZR       0.022600
      9 C23          4.5440     1.9970     0.6440 cd         1 LZR      -0.249000
     10 C19          3.5990     0.9400     0.6610 cd         1 LZR      -0.010200
     11 C22          4.0110    -0.3470     0.4970 cc         1 LZR      -0.193400
     12 C20          3.0420    -1.4850     0.5620 c6         1 LZR      -0.034200
     13 C15          2.1550     1.3130     0.8380 c6         1 LZR       0.258000
     14 N12          1.2660     0.1770     0.7550 nh         1 LZR      -0.759600
     15 C16          1.7840    -1.0680     1.2980 c6         1 LZR       0.226800
     16 C7          -0.0590     0.3080     0.5060 cc         1 LZR       0.740800
     17 N3          -0.8340    -0.7330     0.4980 nd         1 LZR      -0.716100
     18 C1          -2.1560    -0.5510     0.2190 ca         1 LZR       0.249400
     19 C2          -2.7160     0.6970    -0.0660 ca         1 LZR      -0.238600
     20 C5          -4.0890     0.8260    -0.3450 ca         1 LZR      -0.122000
     21 C6          -1.8560     1.8560    -0.0480 c          1 LZR       0.736100
     22 O11         -2.1960     3.0090    -0.2620 o          1 LZR      -0.627500
     23 N10         -0.5380     1.5670     0.2560 ns         1 LZR      -0.520400
     24 C4          -2.9990    -1.6790     0.2150 ca         1 LZR      -0.223000
     25 C8          -4.3430    -1.5540    -0.0600 ca         1 LZR       0.167100
     26 O13         -5.2130    -2.5680    -0.0850 os         1 LZR      -0.292900
     27 C17         -4.7380    -3.8730     0.1900 c3         1 LZR       0.120700
     28 C9          -4.9050    -0.2750    -0.3440 ca         1 LZR       0.084100
     29 O14         -6.2290    -0.2740    -0.5850 os         1 LZR      -0.301900
     30 C18         -6.8580     0.9690    -0.8670 c3         1 LZR       0.149400
     31 C21         -8.3220     0.7030    -1.0820 cx         1 LZR      -0.071300
     32 C24         -9.3540     1.6450    -0.5450 cu         1 LZR      -0.182200
     33 C25         -9.2450     0.5250     0.0820 cu         1 LZR      -0.182200
     34 H301         8.2570     0.9000     0.5990 h1         1 LZR       0.069700
     35 H302         7.9560    -0.8030     0.2970 h1         1 LZR       0.069700
     36 H27          6.6120     2.4580     0.4170 h4         1 LZR       0.152000
     37 H31          7.8410     1.4220    -1.8350 hc         1 LZR       0.077700
     38 H32          9.8300     0.2610    -2.7620 hc         1 LZR       0.078450
     39 H33          7.4510    -1.6340    -2.1100 hc         1 LZR       0.078450
     40 H23          4.2430     3.0250     0.7870 ha         1 LZR       0.149000
     41 H151         2.0420     1.8510     1.7890 h1         1 LZR       0.055700
     42 H152         1.9360     2.0290     0.0420 h1         1 LZR       0.055700
     43 H201         2.7910    -1.8370    -0.4440 hc         1 LZR       0.074200
     44 H202         3.4890    -2.3330     1.0830 hc         1 LZR       0.074200
     45 H161         1.0180    -1.8300     1.2120 h1         1 LZR       0.067700
     46 H162         2.0040    -0.9330     2.3620 h1         1 LZR       0.067700
     47 H10          0.0690     2.3710     0.3160 hn         1 LZR       0.323500
     48 H4          -2.5560    -2.6400     0.4380 ha         1 LZR       0.154000
     49 H5          -4.4780     1.8120    -0.5590 ha         1 LZR       0.156000
     50 H171        -3.9760    -4.1860    -0.5270 h1         1 LZR       0.043367
     51 H172        -4.3270    -3.9480     1.2000 h1         1 LZR       0.043367
     52 H173        -5.5950    -4.5350     0.1060 h1         1 LZR       0.043367
     53 H181        -6.7150     1.6680    -0.0340 h1         1 LZR       0.038700
     54 H182        -6.4120     1.4200    -1.7620 h1         1 LZR       0.038700
     55 H21         -8.5330     0.1650    -2.0080 hc         1 LZR       0.077700
     56 H24         -9.8210     2.6060    -0.6760 ha         1 LZR       0.189500
     57 H25         -9.5550    -0.1440     0.8660 ha         1 LZR       0.189500
     58 H34          9.7690    -0.9600    -1.4160 hc         1 LZR       0.078450
     59 H35          7.4950    -0.4170    -3.4620 hc         1 LZR       0.078450
@<TRIPOS>BOND
     1     1     2 2   
     2     2     3 1   
     3     2    11 1   
     4     3     4 1   
     5     3     8 1   
     6     4     5 1   
     7     4    34 1   
     8     4    35 1   
     9     5     6 1   
    10     5     7 1   
    11     5    37 1   
    12     6     7 1   
    13     6    38 1   
    14     6    58 1   
    15     7    39 1   
    16     7    59 1   
    17     8     9 2   
    18     8    36 1   
    19     9    10 1   
    20     9    40 1   
    21    10    11 2   
    22    10    13 1   
    23    11    12 1   
    24    12    15 1   
    25    12    43 1   
    26    12    44 1   
    27    13    14 1   
    28    13    41 1   
    29    13    42 1   
    30    14    15 1   
    31    14    16 1   
    32    15    45 1   
    33    15    46 1   
    34    16    17 2   
    35    16    23 1   
    36    17    18 1   
    37    18    19 ar  
    38    18    24 ar  
    39    19    20 ar  
    40    19    21 1   
    41    20    28 ar  
    42    20    49 1   
    43    21    22 2   
    44    21    23 1   
    45    23    47 1   
    46    24    25 ar  
    47    24    48 1   
    48    25    26 1   
    49    25    28 ar  
    50    26    27 1   
    51    27    50 1   
    52    27    51 1   
    53    27    52 1   
    54    28    29 1   
    55    29    30 1   
    56    30    31 1   
    57    30    53 1   
    58    30    54 1   
    59    31    32 1   
    60    31    33 1   
    61    31    55 1   
    62    32    33 2   
    63    32    56 1   
    64    33    57 1   
@<TRIPOS>SUBSTRUCTURE
     1 LZR         1 TEMP              0 ****  ****    0 ROOT
