@<TRIPOS>MOLECULE
LZR
   59    64     1     0     0
SMALL
No Charge or Current Charge


@<TRIPOS>ATOM
      1 O29          5.3570    -1.7930     0.3820 o          1 LZR      -0.562000
      2 C26          5.1010    -0.5950     0.4440 c          1 LZR       0.558200
      3 N28          5.9840     0.3900    -0.0530 n          1 LZR      -0.266000
      4 C30          7.2590    -0.0390    -0.6770 c3         1 LZR       0.116000
      5 C31          7.1710    -0.0970    -2.1990 cx         1 LZR      -0.162700
      6 C32          8.0990    -0.9870    -2.9960 cx         1 LZR      -0.118900
      7 C33          6.6280    -1.3190    -2.9040 cx         1 LZR      -0.118900
      8 C27          5.6790     1.7470     0.0160 cc         1 LZR      -0.027400
      9 C23          4.5050     2.2070     0.5690 cd         1 LZR      -0.299000
     10 C19          3.5450     1.2790     1.1030 cd         1 LZR      -0.010200
     11 C22          3.8450    -0.0740     1.0460 cc         1 LZR      -0.193400
     12 C20          2.8700    -1.1090     1.5900 c6         1 LZR      -0.034200
     13 C15          2.2430     1.8050     1.7040 c6         1 LZR       0.258000
     14 N12          1.2600     0.7340     2.0410 nh         1 LZR      -0.759600
     15 C16          1.8970    -0.4810     2.6120 c6         1 LZR       0.226800
     16 C7          -0.0030     0.7050     1.5060 cc         1 LZR       0.740800
     17 N3          -0.5430    -0.4480     1.1380 nd         1 LZR      -0.716100
     18 C1          -1.8380    -0.3390     0.6150 ca         1 LZR       0.249400
     19 C2          -2.5330     0.8750     0.4980 ca         1 LZR      -0.238600
     20 C5          -3.8370     0.9080    -0.0410 ca         1 LZR      -0.104000
     21 C6          -1.8600     2.1100     0.9610 c          1 LZR       0.593600
     22 O11         -2.3650     3.2210     0.9260 o          1 LZR      -0.552000
     23 N10         -0.6200     1.9090     1.4420 ns         1 LZR      -0.453400
     24 C4          -2.4580    -1.5240     0.1920 ca         1 LZR      -0.205000
     25 C8          -3.7620    -1.5100    -0.3500 ca         1 LZR       0.167100
     26 O13         -4.3880    -2.6720    -0.7750 os         1 LZR      -0.316100
     27 C17         -3.7600    -3.9630    -0.6940 c3         1 LZR       0.143900
     28 C9          -4.4590    -0.2860    -0.4690 ca         1 LZR       0.084100
     29 O14         -5.7380    -0.2960    -1.0030 os         1 LZR      -0.325100
     30 C18         -6.5190     0.9010    -1.1600 c3         1 LZR       0.172600
     31 C21         -7.8540     0.4950    -1.7730 cx         1 LZR      -0.071300
     32 C24         -9.0990     1.2200    -1.4410 cu         1 LZR      -0.232200
     33 C25         -8.9770     0.0360    -0.9280 cu         1 LZR      -0.232200
     34 H301         8.0460     0.6730    -0.3940 h1         1 LZR       0.069700
     35 H302         7.5680    -1.0150    -0.2820 h1         1 LZR       0.069700
     36 H27          6.4530     2.3780    -0.4120 h4         1 LZR       0.202000
     37 H31          6.9270     0.8670    -2.6390 hc         1 LZR       0.077700
     38 H32          8.4750    -0.6080    -3.9440 hc         1 LZR       0.078450
     39 H33          6.3400    -2.1760    -2.2990 hc         1 LZR       0.078450
     40 H23          4.3070     3.2760     0.5970 ha         1 LZR       0.199000
     41 H151         2.4780     2.3780     2.6130 h1         1 LZR       0.055700
     42 H152         1.8100     2.5210     0.9910 h1         1 LZR       0.055700
     43 H201         2.2920    -1.5510     0.7680 hc         1 LZR       0.074200
     44 H202         3.3940    -1.9420     2.0790 hc         1 LZR       0.074200
     45 H161         1.1510    -1.2270     2.9220 h1         1 LZR       0.067700
     46 H162         2.4610    -0.2100     3.5180 h1         1 LZR       0.067700
     47 H10         -0.1380     2.7140     1.7980 hn         1 LZR       0.323500
     48 H4          -1.9050    -2.4520     0.2920 ha         1 LZR       0.136000
     49 H5          -4.3510     1.8620    -0.1190 ha         1 LZR       0.138000
     50 H171        -2.8370    -3.9860    -1.2870 h1         1 LZR       0.043367
     51 H172        -3.5180    -4.2160     0.3460 h1         1 LZR       0.043367
     52 H173        -4.4330    -4.7370    -1.0830 h1         1 LZR       0.043367
     53 H181        -6.6890     1.3840    -0.1890 h1         1 LZR       0.038700
     54 H182        -6.0150     1.6130    -1.8260 h1         1 LZR       0.038700
     55 H21         -7.7480     0.0780    -2.7720 hc         1 LZR       0.077700
     56 H24         -9.6600     2.1390    -1.5810 ha         1 LZR       0.239500
     57 H25         -9.3590    -0.7760    -0.3180 ha         1 LZR       0.239500
     58 H34          8.7950    -1.6210    -2.4530 hc         1 LZR       0.078450
     59 H35          6.0150    -1.1630    -3.7880 hc         1 LZR       0.078450
@<TRIPOS>BOND
     1     1     2 2   
     2     2     3 1   
     3     2    11 1   
     4     3     4 1   
     5     3     8 1   
     6     4     5 1   
     7     4    34 1   
     8     4    35 1   
     9     5     6 1   
    10     5     7 1   
    11     5    37 1   
    12     6     7 1   
    13     6    38 1   
    14     6    58 1   
    15     7    39 1   
    16     7    59 1   
    17     8     9 2   
    18     8    36 1   
    19     9    10 1   
    20     9    40 1   
    21    10    11 2   
    22    10    13 1   
    23    11    12 1   
    24    12    15 1   
    25    12    43 1   
    26    12    44 1   
    27    13    14 1   
    28    13    41 1   
    29    13    42 1   
    30    14    15 1   
    31    14    16 1   
    32    15    45 1   
    33    15    46 1   
    34    16    17 2   
    35    16    23 1   
    36    17    18 1   
    37    18    19 ar  
    38    18    24 ar  
    39    19    20 ar  
    40    19    21 1   
    41    20    28 ar  
    42    20    49 1   
    43    21    22 2   
    44    21    23 1   
    45    23    47 1   
    46    24    25 ar  
    47    24    48 1   
    48    25    26 1   
    49    25    28 ar  
    50    26    27 1   
    51    27    50 1   
    52    27    51 1   
    53    27    52 1   
    54    28    29 1   
    55    29    30 1   
    56    30    31 1   
    57    30    53 1   
    58    30    54 1   
    59    31    32 1   
    60    31    33 1   
    61    31    55 1   
    62    32    33 2   
    63    32    56 1   
    64    33    57 1   
@<TRIPOS>SUBSTRUCTURE
     1 LZR         1 TEMP              0 ****  ****    0 ROOT
