@<TRIPOS>MOLECULE
LZS
   73    77     1     0     0
SMALL
No Charge or Current Charge


@<TRIPOS>ATOM
      1 F85         68.2110     5.9060    74.6900 f          1 LZS      -0.104000
      2 C83         67.6370     4.6960    74.8770 c3         1 LZS       0.346000
      3 F81         66.4180     4.7300    74.2970 f          1 LZS      -0.104000
      4 F83         68.3750     3.7700    74.2250 f          1 LZS      -0.104000
      5 C16         67.4920     4.3630    76.3630 c3         1 LZS      -0.436400
      6 S12         69.0490     4.3160    77.2200 s6         1 LZS       1.248100
      7 O18         69.6170     5.6620    77.2970 o          1 LZS      -0.501500
      8 O17         69.8500     3.2020    76.7140 o          1 LZS      -0.501500
      9 N8          68.6820     3.8840    78.7730 nu         1 LZS      -0.897000
     10 C3          68.0070     4.6080    79.7400 ca         1 LZS       0.456900
     11 C1          68.0670     4.2530    81.1060 ca         1 LZS      -0.234000
     12 C2          67.3500     5.0580    82.0140 ca         1 LZS       0.140000
     13 C6          67.3860     4.7570    83.3840 ca         1 LZS      -0.226000
     14 C11         68.1180     3.6510    83.8740 ca         1 LZS       0.172100
     15 O15         68.1830     3.3920    85.2320 os         1 LZS      -0.323100
     16 C22         67.4910     4.1820    86.2150 c3         1 LZS       0.141900
     17 C9          68.8160     2.8220    82.9510 ca         1 LZS       0.060100
     18 O13         69.5570     1.7010    83.3050 os         1 LZS      -0.342100
     19 C19         69.2110     0.8040    84.3820 c3         1 LZS       0.189600
     20 C23         67.8150     0.2370    84.1160 cx         1 LZS      -0.170700
     21 C27         67.5790    -0.7700    83.0130 cx         1 LZS      -0.121900
     22 C26         67.4790    -1.1970    84.4590 cx         1 LZS      -0.121900
     23 C4          68.7950     3.1400    81.5830 ca         1 LZS      -0.046000
     24 N5          66.6370     6.1120    81.5790 nb         1 LZS      -0.277000
     25 C10         66.6290     6.3630    80.2560 ca         1 LZS       0.455900
     26 N7          67.2840     5.6540    79.3250 nb         1 LZS      -0.343000
     27 N14         65.8750     7.4740    79.7950 nh         1 LZS      -0.768300
     28 C20         65.6420     7.6860    78.3270 c6         1 LZS       0.259000
     29 C24         64.8710     8.9320    77.9230 cc         1 LZS      -0.007200
     30 C29         64.5270     9.1150    76.5450 cc         1 LZS      -0.289000
     31 C31         63.8380    10.2340    76.1380 cd         1 LZS      -0.031400
     32 N32         63.4490    11.2210    77.0430 n          1 LZS      -0.266000
     33 C34         62.7390    12.4280    76.5500 c3         1 LZS       0.093000
     34 C35         61.1920    12.3130    76.5770 c3         1 LZS      -0.081700
     35 C37         60.6540    11.1610    75.6940 c3         1 LZS      -0.089100
     36 C36         60.5330    13.6570    76.1930 c3         1 LZS      -0.089100
     37 C30         63.7630    11.1300    78.4230 c          1 LZS       0.554200
     38 O33         63.4440    12.0030    79.2230 o          1 LZS      -0.569000
     39 C28         64.5000     9.9000    78.8310 cd         1 LZS      -0.208400
     40 C25         64.8580     9.7290    80.2990 c6         1 LZS      -0.040200
     41 C21         64.9480     8.2340    80.6930 c6         1 LZS       0.223800
     42 H161        66.8810     5.1180    76.8590 h1         1 LZS       0.141200
     43 H162        67.0480     3.3730    76.4980 h1         1 LZS       0.141200
     44 H8          69.4730     3.3440    79.0810 hn         1 LZS       0.531000
     45 H4          69.3400     2.4910    80.9040 ha         1 LZS       0.123000
     46 H6          66.8370     5.4060    84.0590 ha         1 LZS       0.141000
     47 H221        67.6810     3.7870    87.2210 h1         1 LZS       0.047700
     48 H222        67.8330     5.2240    86.1910 h1         1 LZS       0.047700
     49 H223        66.4080     4.1590    86.0420 h1         1 LZS       0.047700
     50 H191        69.9330    -0.0220    84.4130 h1         1 LZS       0.057700
     51 H192        69.2530     1.2920    85.3620 h1         1 LZS       0.057700
     52 H23         67.0290     0.9690    84.2860 hc         1 LZS       0.078700
     53 H271        66.6580    -0.6880    82.4410 hc         1 LZS       0.073450
     54 H272        68.4390    -1.1130    82.4420 hc         1 LZS       0.073450
     55 H261        68.2690    -1.8310    84.8550 hc         1 LZS       0.073450
     56 H262        66.4880    -1.4030    84.8590 hc         1 LZS       0.073450
     57 H201        66.6140     7.7180    77.8120 h1         1 LZS       0.076700
     58 H202        65.1130     6.8090    77.9230 h1         1 LZS       0.076700
     59 H211        63.9420     7.7910    80.6490 h1         1 LZS       0.066200
     60 H212        65.2720     8.1920    81.7430 h1         1 LZS       0.066200
     61 H29         64.8190     8.3590    75.8200 ha         1 LZS       0.205000
     62 H31         63.5500    10.4320    75.1080 h4         1 LZS       0.201000
     63 H341        63.0470    13.2970    77.1470 h1         1 LZS       0.061200
     64 H342        63.0620    12.6330    75.5210 h1         1 LZS       0.061200
     65 H35         60.8990    12.0960    77.6120 hc         1 LZS       0.075700
     66 H371        60.9660    11.2890    74.6510 hc         1 LZS       0.035533
     67 H372        61.0190    10.1900    76.0490 hc         1 LZS       0.035533
     68 H373        59.5580    11.1320    75.7220 hc         1 LZS       0.035533
     69 H361        60.8730    14.4600    76.8590 hc         1 LZS       0.035533
     70 H362        60.7850    13.9360    75.1620 hc         1 LZS       0.035533
     71 H363        59.4410    13.5920    76.2740 hc         1 LZS       0.035533
     72 H251        65.8210    10.2140    80.5070 hc         1 LZS       0.071200
     73 H252        64.1220    10.2150    80.9530 hc         1 LZS       0.071200
@<TRIPOS>BOND
     1     1     2 1   
     2     2     3 1   
     3     2     4 1   
     4     2     5 1   
     5     5     6 1   
     6     5    42 1   
     7     5    43 1   
     8     6     7 2   
     9     6     8 2   
    10     6     9 1   
    11     9    10 1   
    12     9    44 1   
    13    10    11 ar  
    14    10    26 ar  
    15    11    12 ar  
    16    11    23 ar  
    17    12    13 ar  
    18    12    24 ar  
    19    13    14 ar  
    20    13    46 1   
    21    14    15 1   
    22    14    17 ar  
    23    15    16 1   
    24    16    47 1   
    25    16    48 1   
    26    16    49 1   
    27    17    18 1   
    28    17    23 ar  
    29    18    19 1   
    30    19    20 1   
    31    19    50 1   
    32    19    51 1   
    33    20    21 1   
    34    20    22 1   
    35    20    52 1   
    36    21    22 1   
    37    21    53 1   
    38    21    54 1   
    39    22    55 1   
    40    22    56 1   
    41    23    45 1   
    42    24    25 ar  
    43    25    26 ar  
    44    25    27 1   
    45    27    28 1   
    46    27    41 1   
    47    28    29 1   
    48    28    57 1   
    49    28    58 1   
    50    29    30 1   
    51    29    39 2   
    52    30    31 2   
    53    30    61 1   
    54    31    32 1   
    55    31    62 1   
    56    32    33 1   
    57    32    37 1   
    58    33    34 1   
    59    33    63 1   
    60    33    64 1   
    61    34    35 1   
    62    34    36 1   
    63    34    65 1   
    64    35    66 1   
    65    35    67 1   
    66    35    68 1   
    67    36    69 1   
    68    36    70 1   
    69    36    71 1   
    70    37    38 2   
    71    37    39 1   
    72    39    40 1   
    73    40    41 1   
    74    40    72 1   
    75    40    73 1   
    76    41    59 1   
    77    41    60 1   
@<TRIPOS>SUBSTRUCTURE
     1 LZS         1 TEMP              0 ****  ****    0 ROOT
