@<TRIPOS>MOLECULE
LZS
   73    77     1     0     0
SMALL
bcc


@<TRIPOS>ATOM
      1 F85         65.9910     5.1920    75.2820 f          1 LZS      -0.225300
      2 C83         66.2990     3.8970    75.3910 c3         1 LZS       0.709900
      3 F81         65.2530     3.2030    74.9370 f          1 LZS      -0.225300
      4 F83         67.3270     3.6640    74.5700 f          1 LZS      -0.225300
      5 C16         66.6050     3.5000    76.8170 c3         1 LZS      -0.325600
      6 S12         68.1790     4.1580    77.3890 s6         1 LZS       1.278900
      7 O18         68.2220     5.5790    77.1250 o          1 LZS      -0.572300
      8 O17         69.2430     3.3000    76.9110 o          1 LZS      -0.572300
      9 N8          68.1270     3.8770    79.0270 nu         1 LZS      -0.841800
     10 C3          67.2960     4.5270    79.9140 ca         1 LZS       0.785200
     11 C1          67.4740     4.3700    81.3120 ca         1 LZS      -0.364600
     12 C2          66.5310     5.0680    82.0980 ca         1 LZS       0.533600
     13 C6          66.6100     4.9650    83.5040 ca         1 LZS      -0.309300
     14 C11         67.5920     4.2070    84.0960 ca         1 LZS       0.172100
     15 O15         67.7510     4.0580    85.4120 os         1 LZS      -0.299900
     16 C22         66.8590     4.7310    86.2840 c3         1 LZS       0.118700
     17 C9          68.5520     3.5170    83.2930 ca         1 LZS       0.060100
     18 O13         69.5460     2.8280    83.9050 os         1 LZS      -0.318900
     19 C19         69.2270     1.4830    84.2860 c3         1 LZS       0.166400
     20 C23         69.1610     0.5470    83.1170 cx         1 LZS      -0.170700
     21 C27         70.4290     0.1460    82.4300 cx         1 LZS      -0.121900
     22 C26         69.6940    -0.8450    83.2780 cx         1 LZS      -0.121900
     23 C4          68.4810     3.6030    81.9340 ca         1 LZS      -0.064000
     24 N5          65.5680     5.8400    81.5580 nb         1 LZS      -0.803000
     25 C10         65.5210     5.9140    80.2450 ca         1 LZS       0.981900
     26 N7          66.3490     5.2560    79.4010 nb         1 LZS      -0.869000
     27 N14         64.5710     6.6780    79.6610 nh         1 LZS      -0.768300
     28 C20         64.5210     6.9040    78.2380 c6         1 LZS       0.259000
     29 C24         64.3370     8.3580    77.9010 cc         1 LZS      -0.007200
     30 C29         64.4330     8.7380    76.5380 cc         1 LZS      -0.239000
     31 C31         64.2790    10.0410    76.2130 cd         1 LZS       0.018600
     32 N32         64.0480    10.9930    77.1530 n          1 LZS      -0.333000
     33 C34         63.8450    12.3780    76.7360 c3         1 LZS       0.093000
     34 C35         62.3770    12.8080    76.7270 c3         1 LZS      -0.081700
     35 C37         61.5250    11.9110    75.8370 c3         1 LZS      -0.089100
     36 C36         62.2960    14.2630    76.2770 c3         1 LZS      -0.089100
     37 C30         63.9570    10.6930    78.5040 c          1 LZS       0.696700
     38 O33         63.7710    11.5860    79.3290 o          1 LZS      -0.644500
     39 C28         64.0880     9.2980    78.8560 cd         1 LZS      -0.208400
     40 C25         63.9140     8.9290    80.2990 c6         1 LZS      -0.040200
     41 C21         63.6140     7.4460    80.4290 c6         1 LZS       0.223800
     42 H161        65.8240     3.8710    77.4810 h1         1 LZS       0.141200
     43 H162        66.6650     2.4140    76.9060 h1         1 LZS       0.141200
     44 H8          68.7520     3.1480    79.3470 hn         1 LZS       0.475800
     45 H4          69.2350     3.0800    81.3580 ha         1 LZS       0.141000
     46 H6          65.8760     5.5070    84.0850 ha         1 LZS       0.159000
     47 H221        67.1680     4.4750    87.2940 h1         1 LZS       0.047700
     48 H222        66.9150     5.8140    86.1570 h1         1 LZS       0.047700
     49 H223        65.8270     4.4070    86.1360 h1         1 LZS       0.047700
     50 H191        70.0250     1.1830    84.9670 h1         1 LZS       0.057700
     51 H192        68.2900     1.4610    84.8510 h1         1 LZS       0.057700
     52 H23         68.2850     0.6470    82.4850 hc         1 LZS       0.078700
     53 H271        70.4060     0.0200    81.3550 hc         1 LZS       0.073450
     54 H272        71.3610     0.5490    82.8090 hc         1 LZS       0.073450
     55 H261        70.1240    -1.1170    84.2340 hc         1 LZS       0.073450
     56 H262        69.1630    -1.6500    82.7860 hc         1 LZS       0.073450
     57 H201        65.4440     6.5530    77.7800 h1         1 LZS       0.076700
     58 H202        63.7030     6.3300    77.7830 h1         1 LZS       0.076700
     59 H211        62.6120     7.2360    80.0410 h1         1 LZS       0.066200
     60 H212        63.6400     7.1280    81.4660 h1         1 LZS       0.066200
     61 H29         64.6290     8.0090    75.7640 ha         1 LZS       0.155000
     62 H31         64.3420    10.3910    75.1920 h4         1 LZS       0.151000
     63 H341        64.4240    13.0270    77.3930 h1         1 LZS       0.061200
     64 H342        64.2620    12.4790    75.7330 h1         1 LZS       0.061200
     65 H35         62.0000    12.7480    77.7500 hc         1 LZS       0.075700
     66 H371        61.8870    11.9160    74.8060 hc         1 LZS       0.035533
     67 H372        61.5130    10.8760    76.1840 hc         1 LZS       0.035533
     68 H373        60.4910    12.2570    75.8230 hc         1 LZS       0.035533
     69 H361        62.8970    14.9160    76.9120 hc         1 LZS       0.035533
     70 H362        62.6490    14.3800    75.2490 hc         1 LZS       0.035533
     71 H363        61.2670    14.6220    76.3140 hc         1 LZS       0.035533
     72 H251        64.8100     9.1840    80.8750 hc         1 LZS       0.071200
     73 H252        63.0960     9.5060    80.7360 hc         1 LZS       0.071200
@<TRIPOS>BOND
     1     1     2 1   
     2     2     3 1   
     3     2     4 1   
     4     2     5 1   
     5     5     6 1   
     6     5    42 1   
     7     5    43 1   
     8     6     7 2   
     9     6     8 2   
    10     6     9 1   
    11     9    10 1   
    12     9    44 1   
    13    10    11 ar  
    14    10    26 ar  
    15    11    12 ar  
    16    11    23 ar  
    17    12    13 ar  
    18    12    24 ar  
    19    13    14 ar  
    20    13    46 1   
    21    14    15 1   
    22    14    17 ar  
    23    15    16 1   
    24    16    47 1   
    25    16    48 1   
    26    16    49 1   
    27    17    18 1   
    28    17    23 ar  
    29    18    19 1   
    30    19    20 1   
    31    19    50 1   
    32    19    51 1   
    33    20    21 1   
    34    20    22 1   
    35    20    52 1   
    36    21    22 1   
    37    21    53 1   
    38    21    54 1   
    39    22    55 1   
    40    22    56 1   
    41    23    45 1   
    42    24    25 ar  
    43    25    26 ar  
    44    25    27 1   
    45    27    28 1   
    46    27    41 1   
    47    28    29 1   
    48    28    57 1   
    49    28    58 1   
    50    29    30 1   
    51    29    39 2   
    52    30    31 2   
    53    30    61 1   
    54    31    32 1   
    55    31    62 1   
    56    32    33 1   
    57    32    37 1   
    58    33    34 1   
    59    33    63 1   
    60    33    64 1   
    61    34    35 1   
    62    34    36 1   
    63    34    65 1   
    64    35    66 1   
    65    35    67 1   
    66    35    68 1   
    67    36    69 1   
    68    36    70 1   
    69    36    71 1   
    70    37    38 2   
    71    37    39 1   
    72    39    40 1   
    73    40    41 1   
    74    40    72 1   
    75    40    73 1   
    76    41    59 1   
    77    41    60 1   
@<TRIPOS>SUBSTRUCTURE
     1 LZS         1 TEMP              0 ****  ****    0 ROOT
