@<TRIPOS>MOLECULE
LZT
   82    85     1     0     0
SMALL
abcg2


@<TRIPOS>ATOM
      1 C1           6.4400     0.0480    -1.0650 ca         1 LZT      -0.013300
      2 C2           6.5330    -0.3520    -2.3820 ca         1 LZT      -0.153000
      3 C3           7.6980    -0.0550    -3.0960 ca         1 LZT       0.175100
      4 O4           7.7260    -0.4770    -4.3650 os         1 LZT      -0.339100
      5 C5           8.8820    -0.2390    -5.1490 c3         1 LZT       0.148900
      6 C6           8.7530     0.6430    -2.4860 ca         1 LZT      -0.221000
      7 C7           8.6460     1.0350    -1.1650 ca         1 LZT       0.003000
      8 C8           7.4880     0.7340    -0.4590 ca         1 LZT      -0.234600
      9 C9           7.1560     1.0300     0.9330 c          1 LZT       0.592700
     10 O10          7.8490     1.6170     1.7370 o          1 LZT      -0.523100
     11 C11          5.7740     0.4610     1.2030 c5         1 LZT      -0.187400
     12 C12          5.2860    -0.1610    -0.1180 c5         1 LZT      -0.010400
     13 C13          4.0010     0.4820    -0.6420 c3         1 LZT      -0.148400
     14 C15         -8.5190     0.1550    -2.8970 ca         1 LZT      -0.070300
     15 C16         -8.0000    -0.1680    -1.6420 ca         1 LZT      -0.112500
     16 C17         -6.7900     0.3500    -1.2120 ca         1 LZT      -0.095500
     17 C18         -6.0530     1.2090    -2.0260 ca         1 LZT      -0.114300
     18 C19         -6.5620     1.5270    -3.2780 ca         1 LZT      -0.095500
     19 C20         -7.7790     1.0090    -3.7070 ca         1 LZT      -0.112500
     20 C21         -4.7450     1.7940    -1.5600 c3         1 LZT       0.145300
     21 C23         -3.1970     0.8990     0.1350 c          1 LZT       0.591100
     22 O24         -3.2320     1.8850     0.8530 o          1 LZT      -0.604100
     23 C25         -2.4260    -0.3570     0.5440 c3         1 LZT       0.035700
     24 C26         -3.3140    -1.2240     1.4370 c3         1 LZT      -0.086400
     25 C28         -2.6580    -2.5520     1.8210 c3         1 LZT      -0.030100
     26 C29         -0.1990     0.6000     0.5870 c          1 LZT       0.597100
     27 O30         -0.1860     0.7580    -0.6200 o          1 LZT      -0.585100
     28 C31          0.9460     1.0590     1.4940 c3         1 LZT       0.038700
     29 N32          2.1510     1.2250     0.7330 ns         1 LZT      -0.476900
     30 C33          0.5740     2.3610     2.2090 c3         1 LZT       0.166300
     31 O34          0.3720     3.3300     1.2060 oh         1 LZT      -0.652000
     32 C35          1.6340     2.7770     3.2160 c3         1 LZT      -0.131100
     33 C36         -3.5940    -3.4070     2.6270 ca         1 LZT      -0.083300
     34 C37         -3.6200    -3.3220     4.0180 ca         1 LZT      -0.106500
     35 C38         -4.4880    -4.2700     1.9970 ca         1 LZT      -0.106500
     36 C39         -4.5160    -4.0800     4.7610 ca         1 LZT      -0.108000
     37 C40         -5.4020    -4.9380     4.1220 ca         1 LZT      -0.109000
     38 C41         -5.3850    -5.0310     2.7360 ca         1 LZT      -0.108000
     39 C42          2.8290     0.1660     0.2610 c          1 LZT       0.601100
     40 O43          2.5380    -0.9840     0.5570 o          1 LZT      -0.609100
     41 H2           5.7310    -0.8940    -2.8700 ha         1 LZT       0.136000
     42 H5           8.6800    -0.6670    -6.1270 h1         1 LZT       0.044367
     43 H5A          9.0820     0.8290    -5.2660 h1         1 LZT       0.044367
     44 H5B          9.7650    -0.7230    -4.7270 h1         1 LZT       0.044367
     45 H6           9.6540     0.8800    -3.0350 ha         1 LZT       0.121000
     46 H7           9.4610     1.5690    -0.6930 ha         1 LZT       0.130000
     47 H11          5.8350    -0.2750     2.0070 hc         1 LZT       0.077700
     48 H11A         5.1190     1.2590     1.5640 hc         1 LZT       0.077700
     49 H12          5.1100    -1.2320     0.0040 hc         1 LZT       0.091700
     50 H13          4.1450     1.5590    -0.7560 hc         1 LZT       0.069700
     51 H13A         3.7640     0.0860    -1.6330 hc         1 LZT       0.069700
     52 H14        -10.6680     0.1030    -2.8350 hc         1 LZT       0.043033
     53 H14A        -9.9890    -0.2610    -4.4160 hc         1 LZT       0.043033
     54 H14B        -9.9270    -1.4600    -3.1260 hc         1 LZT       0.043033
     55 H17         -6.4140     0.0770    -0.2330 ha         1 LZT       0.114000
     56 H19         -6.0020     2.1830    -3.9340 ha         1 LZT       0.114000
     57 H20         -8.1490     1.2700    -4.6910 ha         1 LZT       0.112000
     58 H21         -4.2620     2.3200    -2.3890 h1         1 LZT       0.065200
     59 H21A        -4.9150     2.5340    -0.7770 h1         1 LZT       0.065200
     60 H25         -2.1640    -0.9340    -0.3480 h1         1 LZT       0.077700
     61 H26         -3.5900    -0.6670     2.3380 hc         1 LZT       0.058200
     62 H26A        -4.2440    -1.4270     0.9000 hc         1 LZT       0.058200
     63 H28         -2.3600    -3.0780     0.9100 hc         1 LZT       0.053700
     64 H28A        -1.7440    -2.3680     2.3890 hc         1 LZT       0.053700
     65 H31          1.1080     0.2980     2.2620 h1         1 LZT       0.083700
     66 HN32         2.3490     2.1390     0.3560 hn         1 LZT       0.334500
     67 H33         -0.3580     2.1700     2.7570 h1         1 LZT       0.043700
     68 HO34         0.1950     4.1760     1.6300 ho         1 LZT       0.452000
     69 H35          1.3360     3.7000     3.7170 hc         1 LZT       0.047033
     70 H35A         1.7570     2.0130     3.9840 hc         1 LZT       0.047033
     71 H35B         2.6020     2.9470     2.7440 hc         1 LZT       0.047033
     72 H37         -2.9290    -2.6580     4.5250 ha         1 LZT       0.109500
     73 H38         -4.4790    -4.3510     0.9160 ha         1 LZT       0.109500
     74 H39         -4.5200    -4.0020     5.8410 ha         1 LZT       0.112500
     75 H40         -6.0990    -5.5300     4.7000 ha         1 LZT       0.113000
     76 H41         -6.0680    -5.6990     2.2270 ha         1 LZT       0.112500
     77 N27         -1.2140     0.0010     1.2310 ns         1 LZT      -0.488900
     78 N22         -3.8620     0.7840    -1.0250 ns         1 LZT      -0.497900
     79 H16         -8.5520    -0.8380    -0.9920 ha         1 LZT       0.112000
     80 C14         -9.8410    -0.3960    -3.3450 c3         1 LZT      -0.047800
     81 HN22        -3.7100    -0.0370    -1.5890 hn         1 LZT       0.318500
     82 HN27        -1.2080    -0.0310     2.2390 hn         1 LZT       0.318500
@<TRIPOS>BOND
     1     1     2 ar  
     2     1     8 ar  
     3     1    12 1   
     4     2     3 ar  
     5     2    41 1   
     6     3     4 1   
     7     3     6 ar  
     8     4     5 1   
     9     5    42 1   
    10     5    43 1   
    11     5    44 1   
    12     6     7 ar  
    13     6    45 1   
    14     7     8 ar  
    15     7    46 1   
    16     8     9 1   
    17     9    10 2   
    18     9    11 1   
    19    11    12 1   
    20    11    47 1   
    21    11    48 1   
    22    12    13 1   
    23    12    49 1   
    24    13    39 1   
    25    13    50 1   
    26    13    51 1   
    27    14    15 ar  
    28    14    19 ar  
    29    14    80 1   
    30    15    16 ar  
    31    15    79 1   
    32    16    17 ar  
    33    16    55 1   
    34    17    18 ar  
    35    17    20 1   
    36    18    19 ar  
    37    18    56 1   
    38    19    57 1   
    39    20    58 1   
    40    20    59 1   
    41    20    78 1   
    42    21    22 2   
    43    21    23 1   
    44    21    78 1   
    45    23    24 1   
    46    23    60 1   
    47    23    77 1   
    48    24    25 1   
    49    24    61 1   
    50    24    62 1   
    51    25    33 1   
    52    25    63 1   
    53    25    64 1   
    54    26    27 2   
    55    26    28 1   
    56    26    77 1   
    57    28    29 1   
    58    28    30 1   
    59    28    65 1   
    60    29    39 1   
    61    29    66 1   
    62    30    31 1   
    63    30    32 1   
    64    30    67 1   
    65    31    68 1   
    66    32    69 1   
    67    32    70 1   
    68    32    71 1   
    69    33    34 ar  
    70    33    35 ar  
    71    34    36 ar  
    72    34    72 1   
    73    35    38 ar  
    74    35    73 1   
    75    36    37 ar  
    76    36    74 1   
    77    37    38 ar  
    78    37    75 1   
    79    38    76 1   
    80    39    40 2   
    81    52    80 1   
    82    53    80 1   
    83    54    80 1   
    84    77    82 1   
    85    78    81 1   
@<TRIPOS>SUBSTRUCTURE
     1 LZT         1 TEMP              0 ****  ****    0 ROOT
