@<TRIPOS>MOLECULE
LZT
   82    85     1     0     0
SMALL
No Charge or Current Charge


@<TRIPOS>ATOM
      1 C1           6.8020     0.2960    -0.5280 ca         1 LZT      -0.013300
      2 C2           7.7420    -0.7160    -0.2890 ca         1 LZT      -0.153000
      3 C3           8.7510    -0.9610    -1.2400 ca         1 LZT       0.175100
      4 O4           9.6590    -1.9640    -0.9690 os         1 LZT      -0.339100
      5 C5          10.7270    -2.2980    -1.8730 c3         1 LZT       0.148900
      6 C6           8.8000    -0.1930    -2.4320 ca         1 LZT      -0.221000
      7 C7           7.8450     0.8170    -2.6640 ca         1 LZT       0.003000
      8 C8           6.8660     1.0480    -1.6870 ca         1 LZT      -0.234600
      9 C9           5.7620     2.0310    -1.7420 c          1 LZT       0.592700
     10 O10          5.1890     2.3800    -2.7650 o          1 LZT      -0.523100
     11 C11          5.2930     2.0820    -0.2700 c5         1 LZT      -0.187400
     12 C12          5.6250     0.6710     0.3540 c5         1 LZT      -0.010400
     13 C13          4.4730    -0.3630     0.2720 c3         1 LZT      -0.148400
     14 C15         -9.6420     0.9310    -1.9950 ca         1 LZT      -0.070300
     15 C16         -9.4350     0.3800    -0.7170 ca         1 LZT      -0.112500
     16 C17         -8.3340     0.7810     0.0600 ca         1 LZT      -0.095500
     17 C18         -7.4280     1.7380    -0.4340 ca         1 LZT      -0.114300
     18 C19         -7.6310     2.2850    -1.7150 ca         1 LZT      -0.095500
     19 C20         -8.7320     1.8840    -2.4910 ca         1 LZT      -0.112500
     20 C21         -6.2330     2.1650     0.4040 c3         1 LZT       0.145300
     21 C23         -3.9050     1.3540     0.8670 c          1 LZT       0.591100
     22 O24         -3.7030     2.2250     1.7050 o          1 LZT      -0.604100
     23 C25         -2.8470     0.2780     0.4820 c3         1 LZT       0.035700
     24 C26         -3.2810    -1.1370     0.9560 c3         1 LZT      -0.086400
     25 C28         -2.3480    -2.2860     0.5100 c3         1 LZT      -0.030100
     26 C29         -0.3130     0.4870     0.3790 c          1 LZT       0.597100
     27 O30         -0.2480    -0.0080    -0.7400 o          1 LZT      -0.585100
     28 C31          0.9350     0.9510     1.1770 c3         1 LZT       0.038700
     29 N32          2.1760     0.4640     0.5210 ns         1 LZT      -0.476900
     30 C33          0.9330     2.4990     1.3670 c3         1 LZT       0.166300
     31 O34          1.1600     3.1520     0.1110 oh         1 LZT      -0.652000
     32 C35          1.9900     2.9970     2.3740 c3         1 LZT      -0.131100
     33 C36         -2.8910    -3.6480     0.9180 ca         1 LZT      -0.083300
     34 C37         -2.5990    -4.1750     2.1920 ca         1 LZT      -0.106500
     35 C38         -3.6970    -4.3890     0.0310 ca         1 LZT      -0.106500
     36 C39         -3.1040    -5.4310     2.5720 ca         1 LZT      -0.108000
     37 C40         -3.9050    -6.1660     1.6820 ca         1 LZT      -0.109000
     38 C41         -4.2020    -5.6440     0.4120 ca         1 LZT      -0.108000
     39 C42          3.3010     0.0210     1.1770 c          1 LZT       0.601100
     40 O43          3.3490    -0.0890     2.3940 o          1 LZT      -0.609100
     41 H2           7.6920    -1.3120     0.6180 ha         1 LZT       0.136000
     42 H5          11.3290    -3.1190    -1.4640 h1         1 LZT       0.044367
     43 H5A         10.3290    -2.6200    -2.8440 h1         1 LZT       0.044367
     44 H5B         11.3880    -1.4370    -2.0310 h1         1 LZT       0.044367
     45 H6           9.5620    -0.3670    -3.1850 ha         1 LZT       0.121000
     46 H7           7.8700     1.4060    -3.5790 ha         1 LZT       0.130000
     47 H11          5.9400     2.8080     0.2360 hc         1 LZT       0.077700
     48 H11A         4.2510     2.4080    -0.1890 hc         1 LZT       0.077700
     49 H12          5.9210     0.7590     1.4080 hc         1 LZT       0.091700
     50 H13          4.1340    -0.4420    -0.7680 hc         1 LZT       0.069700
     51 H13A         4.8510    -1.3370     0.6020 hc         1 LZT       0.069700
     52 H14        -11.6810     0.2050    -2.2080 hc         1 LZT       0.043033
     53 H14A       -11.1700     1.3000    -3.4990 hc         1 LZT       0.043033
     54 H14B       -10.5690    -0.3670    -3.4640 hc         1 LZT       0.043033
     55 H17         -8.1850     0.3450     1.0460 ha         1 LZT       0.114000
     56 H19         -6.9350     3.0210    -2.1120 ha         1 LZT       0.114000
     57 H20         -8.8770     2.3140    -3.4800 ha         1 LZT       0.112000
     58 H21         -5.9340     3.1880     0.1370 h1         1 LZT       0.065200
     59 H21A        -6.5040     2.1570     1.4680 h1         1 LZT       0.065200
     60 H25         -2.7900     0.2790    -0.6150 h1         1 LZT       0.077700
     61 H26         -3.3580    -1.1420     2.0510 hc         1 LZT       0.058200
     62 H26A        -4.2880    -1.3480     0.5740 hc         1 LZT       0.058200
     63 H28         -2.2180    -2.2420    -0.5790 hc         1 LZT       0.053700
     64 H28A        -1.3520    -2.1410     0.9450 hc         1 LZT       0.053700
     65 H31          0.8520     0.4830     2.1670 h1         1 LZT       0.083700
     66 HN32         2.2210     0.5070    -0.4900 hn         1 LZT       0.334500
     67 H33         -0.0490     2.7920     1.7620 h1         1 LZT       0.043700
     68 HO34         1.1340     4.1200     0.2790 ho         1 LZT       0.452000
     69 H35          1.8870     4.0750     2.5420 hc         1 LZT       0.047033
     70 H35A         1.8660     2.4930     3.3400 hc         1 LZT       0.047033
     71 H35B         3.0070     2.8030     2.0140 hc         1 LZT       0.047033
     72 H37         -1.9810    -3.6110     2.8870 ha         1 LZT       0.109500
     73 H38         -3.9330    -3.9910    -0.9530 ha         1 LZT       0.109500
     74 H39         -2.8750    -5.8330     3.5570 ha         1 LZT       0.112500
     75 H40         -4.2960    -7.1370     1.9770 ha         1 LZT       0.113000
     76 H41         -4.8230    -6.2120    -0.2770 ha         1 LZT       0.112500
     77 N27         -1.5210     0.6480     1.0310 ns         1 LZT      -0.488900
     78 N22         -5.1020     1.2670     0.1920 ns         1 LZT      -0.497900
     79 H16        -10.1270    -0.3620    -0.3240 ha         1 LZT       0.112000
     80 C14        -10.8310     0.4940    -2.8370 c3         1 LZT      -0.047800
     81 HN22        -5.2000     0.5260    -0.4910 hn         1 LZT       0.318500
     82 HN27        -1.4970     1.0840     1.9470 hn         1 LZT       0.318500
@<TRIPOS>BOND
     1     1     2 ar  
     2     1     8 ar  
     3     1    12 1   
     4     2     3 ar  
     5     2    41 1   
     6     3     4 1   
     7     3     6 ar  
     8     4     5 1   
     9     5    42 1   
    10     5    43 1   
    11     5    44 1   
    12     6     7 ar  
    13     6    45 1   
    14     7     8 ar  
    15     7    46 1   
    16     8     9 1   
    17     9    10 2   
    18     9    11 1   
    19    11    12 1   
    20    11    47 1   
    21    11    48 1   
    22    12    13 1   
    23    12    49 1   
    24    13    39 1   
    25    13    50 1   
    26    13    51 1   
    27    14    15 ar  
    28    14    19 ar  
    29    14    80 1   
    30    15    16 ar  
    31    15    79 1   
    32    16    17 ar  
    33    16    55 1   
    34    17    18 ar  
    35    17    20 1   
    36    18    19 ar  
    37    18    56 1   
    38    19    57 1   
    39    20    58 1   
    40    20    59 1   
    41    20    78 1   
    42    21    22 2   
    43    21    23 1   
    44    21    78 1   
    45    23    24 1   
    46    23    60 1   
    47    23    77 1   
    48    24    25 1   
    49    24    61 1   
    50    24    62 1   
    51    25    33 1   
    52    25    63 1   
    53    25    64 1   
    54    26    27 2   
    55    26    28 1   
    56    26    77 1   
    57    28    29 1   
    58    28    30 1   
    59    28    65 1   
    60    29    39 1   
    61    29    66 1   
    62    30    31 1   
    63    30    32 1   
    64    30    67 1   
    65    31    68 1   
    66    32    69 1   
    67    32    70 1   
    68    32    71 1   
    69    33    34 ar  
    70    33    35 ar  
    71    34    36 ar  
    72    34    72 1   
    73    35    38 ar  
    74    35    73 1   
    75    36    37 ar  
    76    36    74 1   
    77    37    38 ar  
    78    37    75 1   
    79    38    76 1   
    80    39    40 2   
    81    52    80 1   
    82    53    80 1   
    83    54    80 1   
    84    77    82 1   
    85    78    81 1   
@<TRIPOS>SUBSTRUCTURE
     1 LZT         1 TEMP              0 ****  ****    0 ROOT
