@<TRIPOS>MOLECULE
LZU
   51    54     1     0     0
SMALL
bcc


@<TRIPOS>ATOM
      1 CAA          3.5610     1.1350     2.1050 c3         1 LZU       0.151100
      2 CAB         -2.2740    -5.5330     1.1310 c3         1 LZU      -0.028000
      3 CAC         -0.5260     4.0930     0.2670 ca         1 LZU      -0.095000
      4 CAD         -1.8690     4.4280     0.2950 ca         1 LZU      -0.154000
      5 CAE          5.0290     0.3290    -1.8350 c6         1 LZU      -0.074400
      6 CAF          5.9590     0.2690    -0.6340 c6         1 LZU      -0.076400
      7 CAG          3.6410    -0.1440    -1.4350 c6         1 LZU      -0.077400
      8 CAH         -0.1220     2.7990    -0.0370 ca         1 LZU      -0.180000
      9 CAI         -2.8100     3.4550    -0.0100 ca         1 LZU      -0.074000
     10 CAJ         -3.1450    -2.7490     0.3430 ca         1 LZU      -0.169000
     11 CAK         -3.6870    -1.5110     0.0260 ca         1 LZU      -0.060000
     12 CAL          1.7010     0.1130     0.1360 c3         1 LZU      -0.114400
     13 CAM          5.3470     1.0160     0.5380 c6         1 LZU       0.168800
     14 CAN          0.7190     0.2620    -1.0400 c3         1 LZU       0.042300
     15 CAO         -0.9470    -1.8210    -0.0060 ca         1 LZU      -0.173000
     16 CAP          3.0980     0.6200    -0.2260 c6         1 LZU       0.188500
     17 CAQ         -1.7660    -2.9060     0.3130 ca         1 LZU       0.071900
     18 CAR         -1.0560     1.8090    -0.3560 ca         1 LZU       0.079700
     19 CAS         -1.4830    -0.5820    -0.3430 ca         1 LZU       0.094700
     20 CAT         -2.4080     2.1740    -0.3560 ca         1 LZU       0.013900
     21 CAU         -2.8790    -0.4490    -0.3390 ca         1 LZU       0.003900
     22 NAV          4.0320     0.5010     0.8900 n3         1 LZU      -0.716600
     23 NAW         -0.6720     0.5030    -0.6850 na         1 LZU      -0.165100
     24 SAY         -3.6040     1.0300    -0.9520 ss         1 LZU      -0.262800
     25 H1           2.7020     0.6130     2.5230 h1         1 LZU       0.031033
     26 H2           4.3490     1.0970     2.8580 h1         1 LZU       0.031033
     27 H3           3.2840     2.1920     1.9700 h1         1 LZU       0.031033
     28 H4          -2.8150    -5.1750     2.0050 h1         1 LZU       0.066700
     29 H5          -2.9650    -5.6990     0.3060 h1         1 LZU       0.066700
     30 H6          -1.7990    -6.4800     1.3790 h1         1 LZU       0.066700
     31 H7           0.2280     4.8350     0.4950 ha         1 LZU       0.131000
     32 H8          -2.1850     5.4310     0.5460 ha         1 LZU       0.136000
     33 H9           4.9710     1.3610    -2.1990 hc         1 LZU       0.039700
     34 H10          5.4140    -0.2730    -2.6610 hc         1 LZU       0.039700
     35 H11          6.1320    -0.7720    -0.3480 hc         1 LZU       0.047200
     36 H12          6.9340     0.7020    -0.8690 hc         1 LZU       0.047200
     37 H13          2.9570    -0.0370    -2.2790 hc         1 LZU       0.046700
     38 H14          3.6700    -1.2100    -1.1840 hc         1 LZU       0.046700
     39 H15          0.9360     2.5850    -0.0290 ha         1 LZU       0.136000
     40 H16         -3.8660     3.6960    -0.0040 ha         1 LZU       0.142000
     41 H17         -3.8070    -3.5640     0.5980 ha         1 LZU       0.136000
     42 H18         -4.7620    -1.3820     0.0370 ha         1 LZU       0.142000
     43 H19          1.3020     0.6570     0.9940 hc         1 LZU       0.059700
     44 H20          1.7810    -0.9300     0.4540 hc         1 LZU       0.059700
     45 H21          5.9960     0.9230     1.4120 h1         1 LZU       0.029200
     46 H22          5.3030     2.0940     0.2950 h1         1 LZU       0.029200
     47 H23          1.0260     1.0960    -1.6760 h1         1 LZU       0.060700
     48 H24          0.7440    -0.6210    -1.6790 h1         1 LZU       0.060700
     49 H25          0.1250    -1.9630     0.0140 ha         1 LZU       0.147000
     50 H26          2.9960     1.6870    -0.5170 h1         1 LZU       0.015700
     51 SAX         -0.9380    -4.4170     0.6730 ss         1 LZU      -0.238000
@<TRIPOS>BOND
     1     1    22 1   
     2     1    25 1   
     3     1    26 1   
     4     1    27 1   
     5     2    28 1   
     6     2    29 1   
     7     2    30 1   
     8     2    51 1   
     9     3     4 ar  
    10     3     8 ar  
    11     3    31 1   
    12     4     9 ar  
    13     4    32 1   
    14     5     6 1   
    15     5     7 1   
    16     5    33 1   
    17     5    34 1   
    18     6    13 1   
    19     6    35 1   
    20     6    36 1   
    21     7    16 1   
    22     7    37 1   
    23     7    38 1   
    24     8    18 ar  
    25     8    39 1   
    26     9    20 ar  
    27     9    40 1   
    28    10    11 ar  
    29    10    17 ar  
    30    10    41 1   
    31    11    21 ar  
    32    11    42 1   
    33    12    14 1   
    34    12    16 1   
    35    12    43 1   
    36    12    44 1   
    37    13    22 1   
    38    13    45 1   
    39    13    46 1   
    40    14    23 1   
    41    14    47 1   
    42    14    48 1   
    43    15    17 ar  
    44    15    19 ar  
    45    15    49 1   
    46    16    22 1   
    47    16    50 1   
    48    17    51 1   
    49    18    20 ar  
    50    18    23 1   
    51    19    21 ar  
    52    19    23 1   
    53    20    24 1   
    54    21    24 1   
@<TRIPOS>SUBSTRUCTURE
     1 LZU         1 TEMP              0 ****  ****    0 ROOT
