@<TRIPOS>MOLECULE
LZU
   51    54     1     0     0
SMALL
No Charge or Current Charge


@<TRIPOS>ATOM
      1 CAA          4.2530     1.2160     2.0030 c3         1 LZU       0.151100
      2 CAB         -2.4080    -5.5580     1.2680 c3         1 LZU       0.019900
      3 CAC         -1.4050     4.1570     1.1240 ca         1 LZU      -0.077000
      4 CAD         -2.5700     4.4240     0.3860 ca         1 LZU      -0.136000
      5 CAE          4.9220     0.0330    -2.1570 c6         1 LZU      -0.074400
      6 CAF          6.0090    -0.1980    -1.0910 c6         1 LZU      -0.076400
      7 CAG          3.5240    -0.1810    -1.5380 c6         1 LZU      -0.077400
      8 CAH         -0.7650     2.9120     1.0000 ca         1 LZU      -0.162000
      9 CAI         -3.1000     3.4450    -0.4710 ca         1 LZU      -0.056000
     10 CAJ         -2.9450    -2.8290    -0.1460 ca         1 LZU      -0.151000
     11 CAK         -3.3580    -1.6870    -0.8540 ca         1 LZU      -0.042000
     12 CAL          1.8760     0.4360     0.3310 c3         1 LZU      -0.114400
     13 CAM          5.7500     0.6930     0.1430 c6         1 LZU       0.168800
     14 CAN          0.7000     0.6800    -0.6460 c3         1 LZU       0.071600
     15 CAO         -1.0130    -1.6100     0.6810 ca         1 LZU      -0.155000
     16 CAP          3.3010     0.6930    -0.2630 c6         1 LZU       0.188500
     17 CAQ         -1.7700    -2.7940     0.6310 ca         1 LZU      -0.055000
     18 CAR         -1.2870     1.9250     0.1400 ca         1 LZU       0.029000
     19 CAS         -1.4110    -0.4660    -0.0370 ca         1 LZU       0.044000
     20 CAT         -2.4630     2.1970    -0.5930 ca         1 LZU      -0.131000
     21 CAU         -2.5980    -0.5070    -0.7970 ca         1 LZU      -0.141000
     22 NAV          4.4020     0.4570     0.7360 n3         1 LZU      -0.716600
     23 NAW         -0.6370     0.6980    -0.0120 na         1 LZU      -0.093000
     24 SAY         -3.1640     0.9500    -1.6690 ss         1 LZU       0.027000
     25 H1           3.3770     0.8790     2.5720 h1         1 LZU       0.031033
     26 H2           5.1290     1.0670     2.6490 h1         1 LZU       0.031033
     27 H3           4.1530     2.2920     1.8070 h1         1 LZU       0.031033
     28 H4          -3.4020    -5.2460     1.6120 h1         1 LZU       0.066700
     29 H5          -2.4450    -5.7920     0.1970 h1         1 LZU       0.066700
     30 H6          -2.1050    -6.4560     1.8200 h1         1 LZU       0.066700
     31 H7          -0.9970     4.9150     1.7900 ha         1 LZU       0.113000
     32 H8          -3.0650     5.3880     0.4810 ha         1 LZU       0.118000
     33 H9           5.0000     1.0550    -2.5540 hc         1 LZU       0.039700
     34 H10          5.0710    -0.6490    -3.0040 hc         1 LZU       0.039700
     35 H11          6.0200    -1.2540    -0.7880 hc         1 LZU       0.047200
     36 H12          7.0000     0.0230    -1.5090 hc         1 LZU       0.047200
     37 H13          2.7720     0.0520    -2.3030 hc         1 LZU       0.046700
     38 H14          3.3940    -1.2430    -1.2850 hc         1 LZU       0.046700
     39 H15          0.1350     2.7190     1.5760 ha         1 LZU       0.118000
     40 H16         -4.0060     3.6530    -1.0360 ha         1 LZU       0.124000
     41 H17         -3.5550    -3.7240    -0.2090 ha         1 LZU       0.118000
     42 H18         -4.2730    -1.7170    -1.4410 ha         1 LZU       0.124000
     43 H19          1.7130     1.0900     1.1920 hc         1 LZU       0.059700
     44 H20          1.8230    -0.5900     0.7090 hc         1 LZU       0.059700
     45 H21          6.5330     0.4860     0.8880 h1         1 LZU       0.029200
     46 H22          5.8550     1.7490    -0.1480 h1         1 LZU       0.029200
     47 H23          0.8530     1.6440    -1.1500 h1         1 LZU       0.060700
     48 H24          0.7000    -0.0960    -1.4210 h1         1 LZU       0.060700
     49 H25         -0.1140    -1.5850     1.2890 ha         1 LZU       0.129000
     50 H26          3.3300     1.7480    -0.5750 h1         1 LZU       0.015700
     51 SAX         -1.1860    -4.2070     1.5750 ss         1 LZU      -0.159000
@<TRIPOS>BOND
     1     1    22 1   
     2     1    25 1   
     3     1    26 1   
     4     1    27 1   
     5     2    28 1   
     6     2    29 1   
     7     2    30 1   
     8     2    51 1   
     9     3     4 ar  
    10     3     8 ar  
    11     3    31 1   
    12     4     9 ar  
    13     4    32 1   
    14     5     6 1   
    15     5     7 1   
    16     5    33 1   
    17     5    34 1   
    18     6    13 1   
    19     6    35 1   
    20     6    36 1   
    21     7    16 1   
    22     7    37 1   
    23     7    38 1   
    24     8    18 ar  
    25     8    39 1   
    26     9    20 ar  
    27     9    40 1   
    28    10    11 ar  
    29    10    17 ar  
    30    10    41 1   
    31    11    21 ar  
    32    11    42 1   
    33    12    14 1   
    34    12    16 1   
    35    12    43 1   
    36    12    44 1   
    37    13    22 1   
    38    13    45 1   
    39    13    46 1   
    40    14    23 1   
    41    14    47 1   
    42    14    48 1   
    43    15    17 ar  
    44    15    19 ar  
    45    15    49 1   
    46    16    22 1   
    47    16    50 1   
    48    17    51 1   
    49    18    20 ar  
    50    18    23 1   
    51    19    21 ar  
    52    19    23 1   
    53    20    24 1   
    54    21    24 1   
@<TRIPOS>SUBSTRUCTURE
     1 LZU         1 TEMP              0 ****  ****    0 ROOT
