@<TRIPOS>MOLECULE
LZV
   38    40     1     0     0
SMALL
No Charge or Current Charge


@<TRIPOS>ATOM
      1 N1          -6.0800   -32.9310   -17.2120 n3         1 LZV      -0.417600
      2 C4          -5.4880   -31.5600   -15.3180 c5         1 LZV       0.103000
      3 C5          -7.9840   -33.4150   -17.9520 c5         1 LZV       0.131800
      4 C6          -8.7580   -32.6080   -16.8840 c5         1 LZV      -0.192400
      5 C7          -7.8470   -32.3920   -15.6330 c          1 LZV       0.531000
      6 C8          -5.4670   -31.7020   -17.7680 c5         1 LZV       0.139200
      7 C10         -5.5530   -29.6470   -19.0710 c5         1 LZV      -0.078400
      8 N           -6.4670   -32.4590   -15.9630 n          1 LZV      -0.255200
      9 C            0.0990   -30.4720   -16.8560 c3         1 LZV      -0.096100
     10 C1          -0.8650   -31.6420   -16.6070 c3         1 LZV       0.164600
     11 C11         -4.3480   -30.5350   -19.5480 c5         1 LZV      -0.078400
     12 C12         -4.6970   -31.9800   -19.0840 c5         1 LZV      -0.081900
     13 C2          -3.2480   -31.9780   -16.4560 c          1 LZV       0.599100
     14 C3          -4.5820   -31.2030   -16.5550 c5         1 LZV      -0.136700
     15 C9          -6.4640   -30.5870   -18.2170 c5         1 LZV      -0.081900
     16 O1          -3.1030   -33.1770   -16.2560 o          1 LZV      -0.468000
     17 O2          -8.2330   -32.2520   -14.4850 o          1 LZV      -0.528000
     18 H1          -4.9400   -32.0600   -14.5080 h1         1 LZV       0.079200
     19 H2          -5.9800   -30.6670   -14.9080 h1         1 LZV       0.079200
     20 H3          -8.1580   -33.0930   -18.9880 h1         1 LZV       0.070700
     21 H4          -8.1800   -34.4920   -17.8620 h1         1 LZV       0.070700
     22 H5          -8.9650   -31.6120   -17.2870 hc         1 LZV       0.083200
     23 H6          -9.7230   -33.0370   -16.5950 hc         1 LZV       0.083200
     24 H7          -5.1960   -28.7950   -18.4810 hc         1 LZV       0.048450
     25 H8          -6.1060   -29.2260   -19.9190 hc         1 LZV       0.048450
     26 H9           1.1370   -30.8270   -16.8430 hc         1 LZV       0.047367
     27 H10         -0.0950   -30.0130   -17.8330 hc         1 LZV       0.047367
     28 H11         -0.0130   -29.7070   -16.0800 hc         1 LZV       0.047367
     29 H12         -0.7270   -32.4030   -17.3860 h1         1 LZV       0.051200
     30 H13         -0.6470   -32.0960   -15.6310 h1         1 LZV       0.051200
     31 H14         -3.4120   -30.1920   -19.0930 hc         1 LZV       0.048450
     32 H15         -4.2040   -30.4820   -20.6330 hc         1 LZV       0.048450
     33 H16         -5.3430   -32.4790   -19.8170 hc         1 LZV       0.053950
     34 H17         -3.8120   -32.6120   -18.9640 hc         1 LZV       0.053950
     35 H18         -4.3600   -30.1320   -16.6080 hc         1 LZV       0.087700
     36 H19         -6.9420   -30.0580   -17.3850 hc         1 LZV       0.053950
     37 H20         -7.2620   -30.9820   -18.8540 hc         1 LZV       0.053950
     38 O           -2.2000   -31.1110   -16.6400 os         1 LZV      -0.461100
@<TRIPOS>BOND
     1     1     3 1   
     2     1     6 1   
     3     1     8 1   
     4     2     8 1   
     5     2    14 1   
     6     2    18 1   
     7     2    19 1   
     8     3     4 1   
     9     3    20 1   
    10     3    21 1   
    11     4     5 1   
    12     4    22 1   
    13     4    23 1   
    14     5     8 1   
    15     5    17 2   
    16     6    12 1   
    17     6    14 1   
    18     6    15 1   
    19     7    11 1   
    20     7    15 1   
    21     7    24 1   
    22     7    25 1   
    23     9    10 1   
    24     9    26 1   
    25     9    27 1   
    26     9    28 1   
    27    10    29 1   
    28    10    30 1   
    29    10    38 1   
    30    11    12 1   
    31    11    31 1   
    32    11    32 1   
    33    12    33 1   
    34    12    34 1   
    35    13    14 1   
    36    13    16 2   
    37    13    38 1   
    38    14    35 1   
    39    15    36 1   
    40    15    37 1   
@<TRIPOS>SUBSTRUCTURE
     1 LZV         1 TEMP              0 ****  ****    0 ROOT
