@<TRIPOS>MOLECULE
LZV
   38    40     1     0     0
SMALL
abcg2


@<TRIPOS>ATOM
      1 N1          -6.2180   -32.8760   -17.1540 n3         1 LZV      -0.417600
      2 C4          -5.6720   -31.7920   -15.1470 c5         1 LZV       0.103000
      3 C5          -7.4310   -33.2830   -17.8980 c5         1 LZV       0.131800
      4 C6          -8.6180   -32.6340   -17.1750 c5         1 LZV      -0.192400
      5 C7          -8.0380   -32.2210   -15.8360 c          1 LZV       0.531000
      6 C8          -5.4770   -31.6690   -17.5970 c5         1 LZV       0.139200
      7 C10         -5.2760   -29.5940   -18.8180 c5         1 LZV      -0.078400
      8 N           -6.7110   -32.5170   -15.8570 n          1 LZV      -0.255200
      9 C           -0.2450   -30.5250   -17.4500 c3         1 LZV      -0.096100
     10 C1          -1.0740   -31.5900   -16.7730 c3         1 LZV       0.164600
     11 C11         -4.2840   -30.6010   -19.4590 c5         1 LZV      -0.078400
     12 C12         -4.5940   -31.9670   -18.8140 c5         1 LZV      -0.081900
     13 C2          -3.3610   -31.9140   -16.1890 c          1 LZV       0.599100
     14 C3          -4.7340   -31.2870   -16.2680 c5         1 LZV      -0.136700
     15 C9          -6.3050   -30.4570   -18.0790 c5         1 LZV      -0.081900
     16 O1          -3.1190   -33.0230   -15.7670 o          1 LZV      -0.468000
     17 O2          -8.6300   -31.7180   -14.8880 o          1 LZV      -0.528000
     18 H1          -5.1400   -32.4480   -14.4600 h1         1 LZV       0.079200
     19 H2          -6.1290   -30.9780   -14.5880 h1         1 LZV       0.079200
     20 H3          -7.3420   -32.9940   -18.9420 h1         1 LZV       0.070700
     21 H4          -7.5040   -34.3690   -17.8520 h1         1 LZV       0.070700
     22 H5          -8.9940   -31.7340   -17.6660 hc         1 LZV       0.083200
     23 H6          -9.4560   -33.3160   -17.0410 hc         1 LZV       0.083200
     24 H7          -4.7490   -28.9500   -18.1110 hc         1 LZV       0.048450
     25 H8          -5.7460   -28.9430   -19.5540 hc         1 LZV       0.048450
     26 H9           0.7870   -30.8700   -17.5350 hc         1 LZV       0.047367
     27 H10         -0.6230   -30.3190   -18.4530 hc         1 LZV       0.047367
     28 H11         -0.2530   -29.5990   -16.8740 hc         1 LZV       0.047367
     29 H12         -1.0890   -32.5190   -17.3420 h1         1 LZV       0.051200
     30 H13         -0.7200   -31.8060   -15.7640 h1         1 LZV       0.051200
     31 H14         -3.2540   -30.3020   -19.2680 hc         1 LZV       0.048450
     32 H15         -4.4120   -30.6500   -20.5410 hc         1 LZV       0.048450
     33 H16         -5.1830   -32.5810   -19.4990 hc         1 LZV       0.053950
     34 H17         -3.7030   -32.5420   -18.5670 hc         1 LZV       0.053950
     35 H18         -4.6090   -30.2090   -16.2210 hc         1 LZV       0.087700
     36 H19         -6.8090   -29.9270   -17.2700 hc         1 LZV       0.053950
     37 H20         -7.0650   -30.8010   -18.7840 hc         1 LZV       0.053950
     38 O           -2.4340   -31.0890   -16.6810 os         1 LZV      -0.461100
@<TRIPOS>BOND
     1     1     3 1   
     2     1     6 1   
     3     1     8 1   
     4     2     8 1   
     5     2    14 1   
     6     2    18 1   
     7     2    19 1   
     8     3     4 1   
     9     3    20 1   
    10     3    21 1   
    11     4     5 1   
    12     4    22 1   
    13     4    23 1   
    14     5     8 1   
    15     5    17 2   
    16     6    12 1   
    17     6    14 1   
    18     6    15 1   
    19     7    11 1   
    20     7    15 1   
    21     7    24 1   
    22     7    25 1   
    23     9    10 1   
    24     9    26 1   
    25     9    27 1   
    26     9    28 1   
    27    10    29 1   
    28    10    30 1   
    29    10    38 1   
    30    11    12 1   
    31    11    31 1   
    32    11    32 1   
    33    12    33 1   
    34    12    34 1   
    35    13    14 1   
    36    13    16 2   
    37    13    38 1   
    38    14    35 1   
    39    15    36 1   
    40    15    37 1   
@<TRIPOS>SUBSTRUCTURE
     1 LZV         1 TEMP              0 ****  ****    0 ROOT
