@<TRIPOS>MOLECULE
LZW
   42    45     1     0     0
SMALL
abcg2


@<TRIPOS>ATOM
      1 C4          13.9110    -5.1790     7.2860 ca         1 LZW      -0.052500
      2 C5          13.2590    -4.3560     8.1920 ca         1 LZW      -0.165300
      3 C6          14.0380    -3.4310     9.1090 c6         1 LZW       0.359000
      4 N1          11.8220     0.9060    14.5480 n8         1 LZW      -0.998100
      5 C7          13.7150    -2.0020     8.8200 c2         1 LZW      -0.161400
      6 C8          13.0790    -1.1940     9.6720 ce         1 LZW      -0.033400
      7 C9          12.9000     0.1840     9.1040 c5         1 LZW      -0.039200
      8 C10         13.2780     0.0030     7.6210 c5         1 LZW      -0.076400
      9 C11         14.0750    -1.3140     7.5420 c5         1 LZW      -0.031200
     10 C12         12.6900    -1.6360    10.9950 ca         1 LZW      -0.150800
     11 C13         13.0800    -2.9480    11.3690 ca         1 LZW       0.408000
     12 C14         12.7500    -3.4160    12.6490 ca         1 LZW      -0.232000
     13 C15         12.0540    -2.6180    13.5350 ca         1 LZW       0.045000
     14 O2           9.6340     0.2970    13.5610 o          1 LZW      -0.551500
     15 O1          10.4570    -1.1090    15.4520 o          1 LZW      -0.551500
     16 C16         11.6720    -1.3360    13.1580 ca         1 LZW      -0.357500
     17 N           13.7850    -3.7160    10.5110 nu         1 LZW      -0.953200
     18 C17         11.9890    -0.8520    11.8890 ca         1 LZW       0.066000
     19 C2          11.8670    -4.3900     8.2340 ca         1 LZW      -0.052500
     20 C1          11.1460    -5.2240     7.3990 ca         1 LZW      -0.179000
     21 C3          13.2030    -6.0190     6.4360 ca         1 LZW      -0.179000
     22 C           11.8140    -6.0460     6.4900 ca         1 LZW       0.148100
     23 O           11.0680    -6.8400     5.6970 oh         1 LZW      -0.530100
     24 H1          14.9940    -5.1700     7.2360 ha         1 LZW       0.118500
     25 H2          15.1050    -3.6000     8.9120 h1         1 LZW       0.059700
     26 H3          11.3600     1.6900    15.0010 hn         1 LZW       0.467500
     27 H4          12.6150     0.6060    15.1060 hn         1 LZW       0.467500
     28 H5          13.5590     0.8950     9.6150 hc         1 LZW       0.057200
     29 H6          11.8830     0.5650     9.2270 hc         1 LZW       0.057200
     30 H7          13.8360     0.8520     7.2290 hc         1 LZW       0.047200
     31 H8          12.3700    -0.0860     7.0230 hc         1 LZW       0.047200
     32 H9          13.8180    -1.9030     6.6580 hc         1 LZW       0.052200
     33 H10         15.1560    -1.1440     7.4950 hc         1 LZW       0.052200
     34 H11         13.0470    -4.4140    12.9460 ha         1 LZW       0.117000
     35 H12         11.8130    -3.0020    14.5160 ha         1 LZW       0.137000
     36 H13         14.0200    -4.6470    10.8160 hn         1 LZW       0.491000
     37 H14         11.6950     0.1480    11.5960 ha         1 LZW       0.132000
     38 H15         11.3300    -3.7520     8.9270 ha         1 LZW       0.118500
     39 H16         10.0630    -5.2420     7.4440 ha         1 LZW       0.124000
     40 H17         13.7370    -6.6510     5.7360 ha         1 LZW       0.124000
     41 H18         11.6330    -7.3600     5.1150 ho         1 LZW       0.466000
     42 S           10.7550    -0.3280    14.2550 sy         1 LZW       1.133600
@<TRIPOS>BOND
     1     1     2 ar  
     2     1    21 ar  
     3     1    24 1   
     4     2     3 1   
     5     2    19 ar  
     6     3     5 1   
     7     3    17 1   
     8     3    25 1   
     9     4    26 1   
    10     4    27 1   
    11     4    42 1   
    12     5     6 2   
    13     5     9 1   
    14     6     7 1   
    15     6    10 1   
    16     7     8 1   
    17     7    28 1   
    18     7    29 1   
    19     8     9 1   
    20     8    30 1   
    21     8    31 1   
    22     9    32 1   
    23     9    33 1   
    24    10    11 ar  
    25    10    18 ar  
    26    11    12 ar  
    27    11    17 1   
    28    12    13 ar  
    29    12    34 1   
    30    13    16 ar  
    31    13    35 1   
    32    14    42 2   
    33    15    42 2   
    34    16    18 ar  
    35    16    42 1   
    36    17    36 1   
    37    18    37 1   
    38    19    20 ar  
    39    19    38 1   
    40    20    22 ar  
    41    20    39 1   
    42    21    22 ar  
    43    21    40 1   
    44    22    23 1   
    45    23    41 1   
@<TRIPOS>SUBSTRUCTURE
     1 LZW         1 TEMP              0 ****  ****    0 ROOT
