@<TRIPOS>MOLECULE
LZW
   42    45     1     0     0
SMALL
No Charge or Current Charge


@<TRIPOS>ATOM
      1 C4          13.9130    -5.3330     7.4480 ca         1 LZW      -0.052500
      2 C5          13.3050    -4.3270     8.2260 ca         1 LZW      -0.165300
      3 C6          14.1670    -3.3540     9.0340 c6         1 LZW       0.359000
      4 N1          11.7290     0.5830    14.8960 n8         1 LZW      -0.998100
      5 C7          13.8250    -1.9000     8.7440 c2         1 LZW      -0.161400
      6 C8          13.1880    -1.0570     9.5590 ce         1 LZW      -0.033400
      7 C9          12.9540     0.3430     9.0290 c5         1 LZW      -0.039200
      8 C10         13.1860     0.0700     7.5010 c5         1 LZW      -0.076400
      9 C11         14.1520    -1.1640     7.4680 c5         1 LZW      -0.031200
     10 C12         12.7670    -1.5430    10.9020 ca         1 LZW      -0.150800
     11 C13         13.1760    -2.8310    11.3030 ca         1 LZW       0.408000
     12 C14         12.7940    -3.3380    12.5500 ca         1 LZW      -0.232000
     13 C15         12.0020    -2.5700    13.4150 ca         1 LZW       0.045000
     14 O2           9.8140     0.6920    13.3520 o          1 LZW      -0.551500
     15 O1          10.0070    -1.1230    15.1610 o          1 LZW      -0.551500
     16 C16         11.5960    -1.2790    13.0260 ca         1 LZW      -0.357500
     17 N           13.9820    -3.6100    10.4700 nu         1 LZW      -0.953200
     18 C17         11.9770    -0.7650    11.7710 ca         1 LZW       0.066000
     19 C2          11.8980    -4.2230     8.2440 ca         1 LZW      -0.052500
     20 C1          11.1130    -5.1140     7.4940 ca         1 LZW      -0.179000
     21 C3          13.1230    -6.2240     6.6990 ca         1 LZW      -0.179000
     22 C           11.7240    -6.1130     6.7220 ca         1 LZW       0.148100
     23 O           10.9530    -6.9720     5.9990 oh         1 LZW      -0.530100
     24 H1          14.9970    -5.4270     7.4230 ha         1 LZW       0.118500
     25 H2          15.2230    -3.5210     8.7660 h1         1 LZW       0.059700
     26 H3          11.4740     0.4070    15.8650 hn         1 LZW       0.467500
     27 H4          12.5610     0.0170    14.7540 hn         1 LZW       0.467500
     28 H5          13.6820     1.0510     9.4400 hc         1 LZW       0.057200
     29 H6          11.9450     0.7230     9.2270 hc         1 LZW       0.057200
     30 H7          13.5940     0.9400     6.9740 hc         1 LZW       0.047200
     31 H8          12.2370    -0.1820     7.0150 hc         1 LZW       0.047200
     32 H9          13.9850    -1.7860     6.5810 hc         1 LZW       0.052200
     33 H10         15.2040    -0.8560     7.4610 hc         1 LZW       0.052200
     34 H11         13.1120    -4.3310    12.8540 ha         1 LZW       0.117000
     35 H12         11.7110    -2.9810    14.3820 ha         1 LZW       0.137000
     36 H13         14.1600    -4.5570    10.7980 hn         1 LZW       0.491000
     37 H14         11.6610     0.2330    11.4750 ha         1 LZW       0.132000
     38 H15         11.4150    -3.4510     8.8400 ha         1 LZW       0.118500
     39 H16         10.0290    -5.0290     7.5110 ha         1 LZW       0.124000
     40 H17         13.6060    -6.9950     6.1030 ha         1 LZW       0.124000
     41 H18         11.5450    -7.5960     5.5260 ho         1 LZW       0.466000
     42 S           10.5880    -0.2860    14.1150 sy         1 LZW       1.133600
@<TRIPOS>BOND
     1     1     2 ar  
     2     1    21 ar  
     3     1    24 1   
     4     2     3 1   
     5     2    19 ar  
     6     3     5 1   
     7     3    17 1   
     8     3    25 1   
     9     4    26 1   
    10     4    27 1   
    11     4    42 1   
    12     5     6 2   
    13     5     9 1   
    14     6     7 1   
    15     6    10 1   
    16     7     8 1   
    17     7    28 1   
    18     7    29 1   
    19     8     9 1   
    20     8    30 1   
    21     8    31 1   
    22     9    32 1   
    23     9    33 1   
    24    10    11 ar  
    25    10    18 ar  
    26    11    12 ar  
    27    11    17 1   
    28    12    13 ar  
    29    12    34 1   
    30    13    16 ar  
    31    13    35 1   
    32    14    42 2   
    33    15    42 2   
    34    16    18 ar  
    35    16    42 1   
    36    17    36 1   
    37    18    37 1   
    38    19    20 ar  
    39    19    38 1   
    40    20    22 ar  
    41    20    39 1   
    42    21    22 ar  
    43    21    40 1   
    44    22    23 1   
    45    23    41 1   
@<TRIPOS>SUBSTRUCTURE
     1 LZW         1 TEMP              0 ****  ****    0 ROOT
