@<TRIPOS>MOLECULE
LZX
   42    43     1     0     0
SMALL
No Charge or Current Charge


@<TRIPOS>ATOM
      1 N1           8.2550    -1.1820    20.7020 ns         1 LZX      -0.140000
      2 C4           8.7140    -0.9590    21.9960 c          1 LZX       0.610100
      3 C5           7.1930    -0.6040    19.9470 ca         1 LZX      -0.080000
      4 C6           6.3040     0.3680    20.4570 ca         1 LZX      -0.100000
      5 C7           5.2900     0.8530    19.6130 ca         1 LZX      -0.133000
      6 C8           5.1900     0.3610    18.3000 ca         1 LZX       0.304900
      7 C10         11.1600    -1.0610    22.7090 ca         1 LZX      -0.095300
      8 C13         13.5090     0.4260    23.2200 ca         1 LZX      -0.100000
      9 C15         11.2430    -0.2180    23.8380 ca         1 LZX      -0.095500
     10 S            6.7940    -5.1340    21.6650 s6         1 LZX       1.218100
     11 N            8.1410    -4.2660    22.0970 n7         1 LZX      -0.927300
     12 N2           6.0330    -0.5710    17.8010 nb         1 LZX      -0.639000
     13 C11         12.2650    -1.1470    21.8380 ca         1 LZX      -0.095500
     14 O1           7.0960    -5.7030    20.3520 o          1 LZX      -0.549000
     15 C2           9.4980    -2.8240    23.5870 c3         1 LZX      -0.066400
     16 C9           7.0090    -1.0380    18.6150 ca         1 LZX       0.282900
     17 C12         13.4340    -0.4080    22.0920 ca         1 LZX      -0.109000
     18 C14         12.4120     0.5210    24.0920 ca         1 LZX      -0.109000
     19 C            5.5680    -3.8590    21.4630 c3         1 LZX      -0.351100
     20 O            6.4620    -5.9920    22.8020 o          1 LZX      -0.549000
     21 O2           8.2380    -0.1200    22.7540 o          1 LZX      -0.586100
     22 C3           9.8900    -1.8730    22.4160 c3         1 LZX      -0.080400
     23 H1           8.7550    -1.9130    20.2120 hn         1 LZX       0.155000
     24 H2           6.3750     0.7470    21.4720 ha         1 LZX       0.154000
     25 H3           4.5860     1.6010    19.9660 ha         1 LZX       0.127000
     26 H4           4.4120     0.7240    17.6290 h4         1 LZX       0.024100
     27 H5          14.4130     0.9980    23.4160 ha         1 LZX       0.116000
     28 H6          10.4020    -0.1250    24.5200 ha         1 LZX       0.118000
     29 H7           8.8260    -5.0210    22.1190 hn         1 LZX       0.492000
     30 H8           7.3410    -2.8350    23.4520 h1         1 LZX       0.059200
     31 H9           8.0190    -4.2730    24.2260 h1         1 LZX       0.059200
     32 H10         12.2250    -1.7880    20.9590 ha         1 LZX       0.118000
     33 H11         10.3000    -3.5600    23.7300 hc         1 LZX       0.064200
     34 H12          9.4310    -2.2560    24.5220 hc         1 LZX       0.064200
     35 H13          7.6690    -1.7890    18.1830 h4         1 LZX       0.014100
     36 H14         14.2820    -0.4820    21.4140 ha         1 LZX       0.117000
     37 H15         12.4670     1.1690    24.9640 ha         1 LZX       0.117000
     38 H16          5.4010    -3.3910    22.4370 h1         1 LZX       0.105033
     39 H17          5.9570    -3.1430    20.7330 h1         1 LZX       0.105033
     40 H18          4.6560    -4.3410    21.0960 h1         1 LZX       0.105033
     41 H19         10.1050    -2.5220    21.5580 hc         1 LZX       0.063700
     42 C1           8.1570    -3.5680    23.3940 c3         1 LZX       0.211800
@<TRIPOS>BOND
     1     1     2 1   
     2     1     3 1   
     3     1    23 1   
     4     2    21 2   
     5     2    22 1   
     6     3     4 ar  
     7     3    16 ar  
     8     4     5 ar  
     9     4    24 1   
    10     5     6 ar  
    11     5    25 1   
    12     6    12 ar  
    13     6    26 1   
    14     7     9 ar  
    15     7    13 ar  
    16     7    22 1   
    17     8    17 ar  
    18     8    18 ar  
    19     8    27 1   
    20     9    18 ar  
    21     9    28 1   
    22    10    11 1   
    23    10    14 2   
    24    10    19 1   
    25    10    20 2   
    26    11    29 1   
    27    11    42 1   
    28    12    16 ar  
    29    13    17 ar  
    30    13    32 1   
    31    15    22 1   
    32    15    33 1   
    33    15    34 1   
    34    15    42 1   
    35    16    35 1   
    36    17    36 1   
    37    18    37 1   
    38    19    38 1   
    39    19    39 1   
    40    19    40 1   
    41    22    41 1   
    42    30    42 1   
    43    31    42 1   
@<TRIPOS>SUBSTRUCTURE
     1 LZX         1 TEMP              0 ****  ****    0 ROOT
