@<TRIPOS>MOLECULE
LZX
   42    43     1     0     0
SMALL
abcg2


@<TRIPOS>ATOM
      1 N1           8.2760    -1.1240    20.7650 ns         1 LZX      -0.140000
      2 C4           8.5960    -1.0580    22.0880 c          1 LZX       0.610100
      3 C5           7.2130    -0.5200    20.0870 ca         1 LZX      -0.080000
      4 C6           6.2930     0.3580    20.6620 ca         1 LZX      -0.100000
      5 C7           5.2690     0.8490    19.8640 ca         1 LZX      -0.133000
      6 C8           5.1880     0.4630    18.5340 ca         1 LZX       0.304900
      7 C10         11.0290    -1.1230    22.6660 ca         1 LZX      -0.095300
      8 C13         13.3780     0.3760    22.9620 ca         1 LZX      -0.100000
      9 C15         11.1200    -0.1340    23.6470 ca         1 LZX      -0.095500
     10 S            6.8480    -5.1280    21.7840 s6         1 LZX       1.218100
     11 N            8.2070    -4.4390    22.3860 n7         1 LZX      -0.927300
     12 N2           6.0700    -0.3740    17.9740 nb         1 LZX      -0.639000
     13 C11         12.1280    -1.3510    21.8380 ca         1 LZX      -0.095500
     14 O1           7.3000    -6.1520    20.8650 o          1 LZX      -0.549000
     15 C2           9.4200    -2.7720    23.7350 c3         1 LZX      -0.066400
     16 C9           7.0500    -0.8480    18.7340 ca         1 LZX       0.282900
     17 C12         13.2960    -0.6100    21.9840 ca         1 LZX      -0.109000
     18 C14         12.2850     0.6120    23.7920 ca         1 LZX      -0.109000
     19 C            6.0850    -3.8200    20.8670 c3         1 LZX      -0.351100
     20 O            5.9270    -5.5110    22.8370 o          1 LZX      -0.549000
     21 O2           8.0020    -0.3580    22.8980 o          1 LZX      -0.586100
     22 C3           9.7710    -1.9520    22.4840 c3         1 LZX      -0.080400
     23 H1           8.8370    -1.7520    20.2080 hn         1 LZX       0.155000
     24 H2           6.3800     0.6370    21.6990 ha         1 LZX       0.154000
     25 H3           4.5360     1.5280    20.2780 ha         1 LZX       0.127000
     26 H4           4.3940     0.8330    17.8950 h4         1 LZX       0.024100
     27 H5          14.2850     0.9560    23.0770 ha         1 LZX       0.116000
     28 H6          10.2760     0.0610    24.2940 ha         1 LZX       0.118000
     29 H7           8.9780    -5.0970    22.3540 hn         1 LZX       0.492000
     30 H8           7.2830    -2.9430    23.5030 h1         1 LZX       0.059200
     31 H9           8.0020    -4.2100    24.4890 h1         1 LZX       0.059200
     32 H10         12.0680    -2.1170    21.0740 ha         1 LZX       0.118000
     33 H11         10.2660    -3.4280    23.9530 hc         1 LZX       0.064200
     34 H12          9.2940    -2.1110    24.5930 hc         1 LZX       0.064200
     35 H13          7.7520    -1.5320    18.2650 h4         1 LZX       0.014100
     36 H14         14.1400    -0.8030    21.3340 ha         1 LZX       0.117000
     37 H15         12.3400     1.3780    24.5550 ha         1 LZX       0.117000
     38 H16          5.9080    -2.9750    21.5290 h1         1 LZX       0.105033
     39 H17          6.7420    -3.5450    20.0470 h1         1 LZX       0.105033
     40 H18          5.1380    -4.2120    20.4970 h1         1 LZX       0.105033
     41 H19          9.9580    -2.6490    21.6690 hc         1 LZX       0.063700
     42 C1           8.1460    -3.6020    23.5930 c3         1 LZX       0.211800
@<TRIPOS>BOND
     1     1     2 1   
     2     1     3 1   
     3     1    23 1   
     4     2    21 2   
     5     2    22 1   
     6     3     4 ar  
     7     3    16 ar  
     8     4     5 ar  
     9     4    24 1   
    10     5     6 ar  
    11     5    25 1   
    12     6    12 ar  
    13     6    26 1   
    14     7     9 ar  
    15     7    13 ar  
    16     7    22 1   
    17     8    17 ar  
    18     8    18 ar  
    19     8    27 1   
    20     9    18 ar  
    21     9    28 1   
    22    10    11 1   
    23    10    14 2   
    24    10    19 1   
    25    10    20 2   
    26    11    29 1   
    27    11    42 1   
    28    12    16 ar  
    29    13    17 ar  
    30    13    32 1   
    31    15    22 1   
    32    15    33 1   
    33    15    34 1   
    34    15    42 1   
    35    16    35 1   
    36    17    36 1   
    37    18    37 1   
    38    19    38 1   
    39    19    39 1   
    40    19    40 1   
    41    22    41 1   
    42    30    42 1   
    43    31    42 1   
@<TRIPOS>SUBSTRUCTURE
     1 LZX         1 TEMP              0 ****  ****    0 ROOT
