@<TRIPOS>MOLECULE
LZY
   28    29     1     0     0
SMALL
abcg2


@<TRIPOS>ATOM
      1 N1          -4.3370   -32.7270   -15.8330 nu         1 LZY      -0.938200
      2 C4          -5.4220   -30.1420   -18.9180 ca         1 LZY       0.131000
      3 C5          -4.1610   -30.0570   -18.3680 ca         1 LZY      -0.106000
      4 C6          -3.8310   -30.9170   -17.3340 ca         1 LZY      -0.157000
      5 C7          -4.7310   -31.8720   -16.8520 ca         1 LZY       0.294000
      6 C8          -5.2300   -33.0250   -14.7230 c3         1 LZY       0.210800
      7 C10         -5.8030   -35.0200   -16.2110 c          1 LZY       0.579000
      8 N           -6.4180   -34.3720   -17.2240 n          1 LZY      -0.395800
      9 C           -6.2100   -34.8470   -18.5780 c3         1 LZY       0.087300
     10 O           -5.2020   -36.0710   -16.4000 o          1 LZY      -0.560000
     11 C1          -6.9850   -33.0460   -17.0860 c3         1 LZY       0.156300
     12 C2          -6.0000   -31.9600   -17.4540 ca         1 LZY      -0.139300
     13 C3          -6.3320   -31.0810   -18.4790 ca         1 LZY      -0.111000
     14 C9          -5.8950   -34.4140   -14.8250 c3         1 LZY      -0.167400
     15 F           -5.7720   -29.3020   -19.9120 f          1 LZY      -0.181000
     16 H1          -3.3930   -32.5510   -15.5300 hn         1 LZY       0.460000
     17 H2          -3.4460   -29.3260   -18.7250 ha         1 LZY       0.132000
     18 H3          -2.8480   -30.8430   -16.8840 ha         1 LZY       0.116000
     19 H4          -4.6390   -32.9950   -13.8100 h1         1 LZY       0.041700
     20 H5          -5.9810   -32.2400   -14.6160 h1         1 LZY       0.041700
     21 H6          -6.3750   -35.9200   -18.6430 h1         1 LZY       0.042367
     22 H7          -6.9230   -34.3550   -19.2370 h1         1 LZY       0.042367
     23 H8          -5.2040   -34.6290   -18.9430 h1         1 LZY       0.042367
     24 H9          -7.3910   -32.9170   -16.0840 h1         1 LZY       0.055700
     25 H10         -7.8460   -32.9800   -17.7530 h1         1 LZY       0.055700
     26 H11         -7.3070   -31.1480   -18.9490 ha         1 LZY       0.128000
     27 H12         -6.9380   -34.3610   -14.5010 hc         1 LZY       0.069700
     28 H13         -5.3980   -35.1130   -14.1550 hc         1 LZY       0.069700
@<TRIPOS>BOND
     1     1     5 1   
     2     1     6 1   
     3     1    16 1   
     4     2     3 ar  
     5     2    13 ar  
     6     2    15 1   
     7     3     4 ar  
     8     3    17 1   
     9     4     5 ar  
    10     4    18 1   
    11     5    12 ar  
    12     6    14 1   
    13     6    19 1   
    14     6    20 1   
    15     7     8 1   
    16     7    10 2   
    17     7    14 1   
    18     8     9 1   
    19     8    11 1   
    20     9    21 1   
    21     9    22 1   
    22     9    23 1   
    23    11    12 1   
    24    11    24 1   
    25    11    25 1   
    26    12    13 ar  
    27    13    26 1   
    28    14    27 1   
    29    14    28 1   
@<TRIPOS>SUBSTRUCTURE
     1 LZY         1 TEMP              0 ****  ****    0 ROOT
