@<TRIPOS>MOLECULE
LZY
   28    29     1     0     0
SMALL
No Charge or Current Charge


@<TRIPOS>ATOM
      1 N1          -4.3510   -32.5670   -15.6780 nu         1 LZY      -0.938200
      2 C4          -5.3300   -30.1550   -19.0050 ca         1 LZY       0.131000
      3 C5          -4.1210   -29.9940   -18.3200 ca         1 LZY      -0.106000
      4 C6          -3.8320   -30.8170   -17.2180 ca         1 LZY      -0.157000
      5 C7          -4.7430   -31.7990   -16.7870 ca         1 LZY       0.294000
      6 C8          -5.2080   -33.0480   -14.5870 c3         1 LZY       0.210800
      7 C10         -5.6600   -34.9660   -16.2750 c          1 LZY       0.579000
      8 N           -6.4980   -34.4120   -17.2680 n          1 LZY      -0.395800
      9 C           -6.4740   -34.9690   -18.6380 c3         1 LZY       0.087300
     10 O           -4.8560   -35.8500   -16.5500 o          1 LZY      -0.560000
     11 C1          -7.0080   -33.0320   -17.1300 c3         1 LZY       0.156300
     12 C2          -5.9710   -31.9670   -17.4900 ca         1 LZY      -0.139300
     13 C3          -6.2480   -31.1340   -18.5980 ca         1 LZY      -0.111000
     14 C9          -5.7890   -34.4590   -14.8310 c3         1 LZY      -0.167400
     15 F           -5.6120   -29.3690   -20.0660 f          1 LZY      -0.181000
     16 H1          -3.3680   -32.4480   -15.4270 hn         1 LZY       0.460000
     17 H2          -3.4110   -29.2360   -18.6410 ha         1 LZY       0.132000
     18 H3          -2.8900   -30.6830   -16.6920 ha         1 LZY       0.116000
     19 H4          -4.6230   -33.0830   -13.6570 h1         1 LZY       0.041700
     20 H5          -6.0230   -32.3310   -14.4140 h1         1 LZY       0.041700
     21 H6          -6.5810   -36.0610   -18.5990 h1         1 LZY       0.042367
     22 H7          -7.2980   -34.5570   -19.2340 h1         1 LZY       0.042367
     23 H8          -5.5210   -34.7170   -19.1220 h1         1 LZY       0.042367
     24 H9          -7.3940   -32.8540   -16.1210 h1         1 LZY       0.055700
     25 H10         -7.8780   -32.9250   -17.7910 h1         1 LZY       0.055700
     26 H11         -7.1760   -31.2450   -19.1530 ha         1 LZY       0.128000
     27 H12         -6.8530   -34.3850   -14.5840 hc         1 LZY       0.069700
     28 H13         -5.3030   -35.1710   -14.1540 hc         1 LZY       0.069700
@<TRIPOS>BOND
     1     1     5 1   
     2     1     6 1   
     3     1    16 1   
     4     2     3 ar  
     5     2    13 ar  
     6     2    15 1   
     7     3     4 ar  
     8     3    17 1   
     9     4     5 ar  
    10     4    18 1   
    11     5    12 ar  
    12     6    14 1   
    13     6    19 1   
    14     6    20 1   
    15     7     8 1   
    16     7    10 2   
    17     7    14 1   
    18     8     9 1   
    19     8    11 1   
    20     9    21 1   
    21     9    22 1   
    22     9    23 1   
    23    11    12 1   
    24    11    24 1   
    25    11    25 1   
    26    12    13 ar  
    27    13    26 1   
    28    14    27 1   
    29    14    28 1   
@<TRIPOS>SUBSTRUCTURE
     1 LZY         1 TEMP              0 ****  ****    0 ROOT
