@<TRIPOS>MOLECULE
LZZ
   56    59     1     0     0
SMALL
abcg2


@<TRIPOS>ATOM
      1 CAR          2.2700    -0.4050    -1.7080 c3         1 LZZ      -0.090100
      2 CAQ          2.1490    -0.2490    -0.1870 c5         1 LZZ      -0.021000
      3 CAS          1.4780    -1.4840     0.4090 c6         1 LZZ      -0.060400
      4 CAT          0.0220    -1.5810    -0.0540 c6         1 LZZ      -0.072400
      5 CAU         -0.8030    -0.3200     0.2280 c6         1 LZZ      -0.046700
      6 CAV         -2.2670    -0.4390    -0.2690 c6         1 LZZ       0.002200
      7 CAW         -2.3350    -0.8200    -1.7580 c3         1 LZZ      -0.079100
      8 CAA         -2.9830    -1.5150     0.5750 c6         1 LZZ      -0.067400
      9 CAB         -4.4940    -1.5640     0.3940 c6         1 LZZ      -0.072400
     10 CAC         -5.1100    -0.2170     0.7140 c6         1 LZZ       0.173300
     11 OAD         -6.5100    -0.3100     0.5420 oh         1 LZZ      -0.660000
     12 CAE         -4.4950     0.8540    -0.1830 c6         1 LZZ      -0.073200
     13 CAF         -2.9920     0.8840    -0.0840 c2         1 LZZ      -0.106400
     14 CAG         -2.3520     2.0310     0.1420 c2         1 LZZ      -0.217200
     15 CAH         -0.8690     2.1830     0.2160 c6         1 LZZ      -0.037200
     16 CAI         -0.1170     0.9550    -0.2870 c6         1 LZZ      -0.042700
     17 CAJ          1.3240     0.9870     0.1990 c5         1 LZZ      -0.065700
     18 CAK          2.2100     2.1640    -0.2060 c5         1 LZZ      -0.066400
     19 CAL          3.6530     1.6450    -0.0090 c5         1 LZZ      -0.099400
     20 CAM          3.5320     0.1640     0.4120 c5         1 LZZ       0.078000
     21 OAX          3.4450     0.0370     1.8160 oh         1 LZZ      -0.652000
     22 CAN          4.6770    -0.7170    -0.0900 c          1 LZZ       0.557100
     23 OAO          5.3220    -0.4300    -1.0740 o          1 LZZ      -0.520100
     24 CAP          4.9810    -1.9600     0.7040 c3         1 LZZ      -0.193100
     25 HAU          2.7980    -1.3250    -1.9680 hc         1 LZZ       0.040700
     26 HAV          1.2920    -0.4650    -2.1810 hc         1 LZZ       0.040700
     27 HAT          2.7980     0.4210    -2.1830 hc         1 LZZ       0.040700
     28 HAX          2.0000    -2.4000     0.1130 hc         1 LZZ       0.049200
     29 HAW          1.5090    -1.4380     1.5000 hc         1 LZZ       0.049200
     30 HAY          0.0010    -1.8090    -1.1220 hc         1 LZZ       0.040200
     31 HAZ         -0.4390    -2.4390     0.4400 hc         1 LZZ       0.040200
     32 HA0         -0.8580    -0.2100     1.3210 hc         1 LZZ       0.048700
     33 HA2         -2.0040    -1.8450    -1.9270 hc         1 LZZ       0.035033
     34 HA3         -3.3520    -0.7470    -2.1420 hc         1 LZZ       0.035033
     35 HA1         -1.7140    -0.1620    -2.3680 hc         1 LZZ       0.035033
     36 HAB         -2.5680    -2.4980     0.3400 hc         1 LZZ       0.042200
     37 HAA         -2.7600    -1.3330     1.6320 hc         1 LZZ       0.042200
     38 HAC         -4.7510    -1.8530    -0.6310 hc         1 LZZ       0.053200
     39 HAD         -4.9120    -2.3330     1.0500 hc         1 LZZ       0.053200
     40 HAE         -4.8690     0.0320     1.7590 h1         1 LZZ       0.030700
     41 HA4         -6.9020     0.5280     0.8080 ho         1 LZZ       0.441000
     42 HAG         -4.8080     0.6490    -1.2140 hc         1 LZZ       0.049700
     43 HAF         -4.8970     1.8390     0.0740 hc         1 LZZ       0.049700
     44 HAH         -2.9410     2.9340     0.2840 ha         1 LZZ       0.168000
     45 HAI         -0.5640     3.0700    -0.3490 hc         1 LZZ       0.046700
     46 HAJ         -0.5790     2.3920     1.2550 hc         1 LZZ       0.046700
     47 HAK         -0.1420     0.9640    -1.3830 hc         1 LZZ       0.054700
     48 HAL          1.2640     0.9890     1.2940 hc         1 LZZ       0.061700
     49 HAN          2.0400     2.4410    -1.2490 hc         1 LZZ       0.045200
     50 HAM          2.0070     3.0540     0.3910 hc         1 LZZ       0.045200
     51 HAO          4.2330     1.7390    -0.9250 hc         1 LZZ       0.056700
     52 HAP          4.1940     2.2100     0.7530 hc         1 LZZ       0.056700
     53 HA5          4.1470     0.5580     2.2180 ho         1 LZZ       0.444000
     54 HAR          4.0830    -2.4570     1.0680 hc         1 LZZ       0.062700
     55 HAQ          5.5660    -2.6550     0.1050 hc         1 LZZ       0.062700
     56 HAS          5.5680    -1.6920     1.5850 hc         1 LZZ       0.062700
@<TRIPOS>BOND
     1     1     2 1   
     2     1    25 1   
     3     1    26 1   
     4     1    27 1   
     5     2     3 1   
     6     2    17 1   
     7     2    20 1   
     8     3     4 1   
     9     3    28 1   
    10     3    29 1   
    11     4     5 1   
    12     4    30 1   
    13     4    31 1   
    14     5     6 1   
    15     5    16 1   
    16     5    32 1   
    17     6     7 1   
    18     6     8 1   
    19     6    13 1   
    20     7    33 1   
    21     7    34 1   
    22     7    35 1   
    23     8     9 1   
    24     8    36 1   
    25     8    37 1   
    26     9    10 1   
    27     9    38 1   
    28     9    39 1   
    29    10    11 1   
    30    10    12 1   
    31    10    40 1   
    32    11    41 1   
    33    12    13 1   
    34    12    42 1   
    35    12    43 1   
    36    13    14 2   
    37    14    15 1   
    38    14    44 1   
    39    15    16 1   
    40    15    45 1   
    41    15    46 1   
    42    16    17 1   
    43    16    47 1   
    44    17    18 1   
    45    17    48 1   
    46    18    19 1   
    47    18    49 1   
    48    18    50 1   
    49    19    20 1   
    50    19    51 1   
    51    19    52 1   
    52    20    21 1   
    53    20    22 1   
    54    21    53 1   
    55    22    23 2   
    56    22    24 1   
    57    24    54 1   
    58    24    55 1   
    59    24    56 1   
@<TRIPOS>SUBSTRUCTURE
     1 LZZ         1 TEMP              0 ****  ****    0 ROOT
