@<TRIPOS>MOLECULE
LZZ
   56    59     1     0     0
SMALL
No Charge or Current Charge


@<TRIPOS>ATOM
      1 CAR          2.4000    -0.4680    -1.6580 c3         1 LZZ      -0.090100
      2 CAQ          2.2300    -0.2200    -0.1140 c5         1 LZZ      -0.021000
      3 CAS          1.5330    -1.4730     0.5110 c6         1 LZZ      -0.060400
      4 CAT          0.0660    -1.6290     0.0190 c6         1 LZZ      -0.072400
      5 CAU         -0.8120    -0.3510     0.2730 c6         1 LZZ      -0.046700
      6 CAV         -2.3010    -0.4990    -0.2530 c6         1 LZZ       0.002200
      7 CAW         -2.3500    -0.8800    -1.7740 c3         1 LZZ      -0.079100
      8 CAA         -3.0420    -1.5870     0.6000 c6         1 LZZ      -0.067400
      9 CAB         -4.5750    -1.6110     0.3910 c6         1 LZZ      -0.072400
     10 CAC         -5.1920    -0.2280     0.6850 c6         1 LZZ       0.173300
     11 OAD         -6.6080    -0.2720     0.4850 oh         1 LZZ      -0.660000
     12 CAE         -4.5580     0.8470    -0.2270 c6         1 LZZ      -0.073200
     13 CAF         -3.0300     0.8880    -0.1120 c2         1 LZZ      -0.106400
     14 CAG         -2.4050     2.0810     0.0730 c2         1 LZZ      -0.217200
     15 CAH         -0.8990     2.2240     0.1870 c6         1 LZZ      -0.037200
     16 CAI         -0.1190     0.9540    -0.2620 c6         1 LZZ      -0.042700
     17 CAJ          1.3550     1.0250     0.2430 c5         1 LZZ      -0.065700
     18 CAK          2.2290     2.2050    -0.2570 c5         1 LZZ      -0.066400
     19 CAL          3.6890     1.7560     0.0890 c5         1 LZZ      -0.099400
     20 CAM          3.5880     0.2490     0.5710 c5         1 LZZ       0.078000
     21 OAX          3.5400     0.2040     2.0170 oh         1 LZZ      -0.652000
     22 CAN          4.8380    -0.5920     0.0530 c          1 LZZ       0.557100
     23 OAO          5.7880    -0.1150    -0.5590 o          1 LZZ      -0.520100
     24 CAP          4.8840    -2.0840     0.4080 c3         1 LZZ      -0.193100
     25 HAU          2.9060    -1.4190    -1.8570 hc         1 LZZ       0.040700
     26 HAV          1.4430    -0.5060    -2.1880 hc         1 LZZ       0.040700
     27 HAT          2.9940     0.3110    -2.1500 hc         1 LZZ       0.040700
     28 HAX          2.0880    -2.3890     0.2750 hc         1 LZZ       0.049200
     29 HAW          1.5240    -1.3980     1.6070 hc         1 LZZ       0.049200
     30 HAY          0.0740    -1.8920    -1.0440 hc         1 LZZ       0.040200
     31 HAZ         -0.3750    -2.4910     0.5340 hc         1 LZZ       0.040200
     32 HA0         -0.8690    -0.2310     1.3650 hc         1 LZZ       0.048700
     33 HA2         -1.9550    -1.8850    -1.9600 hc         1 LZZ       0.035033
     34 HA3         -3.3720    -0.8800    -2.1660 hc         1 LZZ       0.035033
     35 HA1         -1.7800    -0.1780    -2.3920 hc         1 LZZ       0.035033
     36 HAB         -2.6430    -2.5850     0.3790 hc         1 LZZ       0.042200
     37 HAA         -2.8460    -1.4130     1.6680 hc         1 LZZ       0.042200
     38 HAC         -4.8180    -1.9270    -0.6330 hc         1 LZZ       0.053200
     39 HAD         -5.0210    -2.3620     1.0570 hc         1 LZZ       0.053200
     40 HAE         -4.9730     0.0330     1.7320 h1         1 LZZ       0.030700
     41 HA4         -6.9560     0.6080     0.7470 ho         1 LZZ       0.441000
     42 HAG         -4.8400     0.6560    -1.2700 hc         1 LZZ       0.049700
     43 HAF         -4.9830     1.8300     0.0210 hc         1 LZZ       0.049700
     44 HAH         -2.9760     3.0070     0.1520 ha         1 LZZ       0.168000
     45 HAI         -0.5720     3.0840    -0.4130 hc         1 LZZ       0.046700
     46 HAJ         -0.6590     2.4690     1.2300 hc         1 LZZ       0.046700
     47 HAK         -0.1130     0.9360    -1.3590 hc         1 LZZ       0.054700
     48 HAL          1.2480     1.1040     1.3330 hc         1 LZZ       0.061700
     49 HAN          2.1060     2.3720    -1.3340 hc         1 LZZ       0.045200
     50 HAM          1.9650     3.1460     0.2380 hc         1 LZZ       0.045200
     51 HAO          4.3160     1.8790    -0.8010 hc         1 LZZ       0.056700
     52 HAP          4.1350     2.3990     0.8560 hc         1 LZZ       0.056700
     53 HA5          4.2960     0.7330     2.3550 ho         1 LZZ       0.444000
     54 HAR          4.3420    -2.2820     1.3390 hc         1 LZZ       0.062700
     55 HAQ          4.3280    -2.6370    -0.3550 hc         1 LZZ       0.062700
     56 HAS          5.9110    -2.4640     0.4360 hc         1 LZZ       0.062700
@<TRIPOS>BOND
     1     1     2 1   
     2     1    25 1   
     3     1    26 1   
     4     1    27 1   
     5     2     3 1   
     6     2    17 1   
     7     2    20 1   
     8     3     4 1   
     9     3    28 1   
    10     3    29 1   
    11     4     5 1   
    12     4    30 1   
    13     4    31 1   
    14     5     6 1   
    15     5    16 1   
    16     5    32 1   
    17     6     7 1   
    18     6     8 1   
    19     6    13 1   
    20     7    33 1   
    21     7    34 1   
    22     7    35 1   
    23     8     9 1   
    24     8    36 1   
    25     8    37 1   
    26     9    10 1   
    27     9    38 1   
    28     9    39 1   
    29    10    11 1   
    30    10    12 1   
    31    10    40 1   
    32    11    41 1   
    33    12    13 1   
    34    12    42 1   
    35    12    43 1   
    36    13    14 2   
    37    14    15 1   
    38    14    44 1   
    39    15    16 1   
    40    15    45 1   
    41    15    46 1   
    42    16    17 1   
    43    16    47 1   
    44    17    18 1   
    45    17    48 1   
    46    18    19 1   
    47    18    49 1   
    48    18    50 1   
    49    19    20 1   
    50    19    51 1   
    51    19    52 1   
    52    20    21 1   
    53    20    22 1   
    54    21    53 1   
    55    22    23 2   
    56    22    24 1   
    57    24    54 1   
    58    24    55 1   
    59    24    56 1   
@<TRIPOS>SUBSTRUCTURE
     1 LZZ         1 TEMP              0 ****  ****    0 ROOT
