@<TRIPOS>MOLECULE
K01
   46    48     1     0     0
SMALL
No Charge or Current Charge


@<TRIPOS>ATOM
      1 O21          2.3170    -2.9700    -0.1570 o          1 K01      -0.574100
      2 C15          2.4450    -1.7590    -0.2730 c          1 K01       0.644700
      3 C16          3.7530    -1.1030    -0.4670 cc         1 K01      -0.302600
      4 S17          3.9860     0.6360    -0.6370 ss         1 K01       0.238000
      5 C18          5.7250     0.4130    -0.8010 cc         1 K01      -0.223000
      6 C19          6.0630    -0.9160    -0.7260 cd         1 K01      -0.146000
      7 C20          4.9490    -1.7770    -0.5360 cd         1 K01      -0.054000
      8 N14          1.3880    -0.8740    -0.2340 ns         1 K01      -0.378100
      9 C13          0.0260    -1.1250    -0.0870 cc         1 K01      -0.035400
     10 S12         -0.7250    -2.7150     0.0690 ss         1 K01       0.291000
     11 C7          -2.3200    -1.9880     0.1020 cc         1 K01      -0.245300
     12 C6          -2.2530    -0.6120     0.0690 cd         1 K01      -0.058300
     13 C11         -3.5190     0.2330    -0.0430 c6         1 K01      -0.013100
     14 C10         -4.7120    -0.5940    -0.5760 c6         1 K01      -0.072400
     15 C9          -4.8520    -1.9080     0.2240 c6         1 K01      -0.071400
     16 C8          -3.5980    -2.7990     0.0530 c6         1 K01       0.001900
     17 C5          -0.9030    -0.0990     0.0050 cd         1 K01      -0.225600
     18 C4          -0.4740     1.3450    -0.0620 c          1 K01       0.636700
     19 O22          0.5370     1.6990    -0.6600 o          1 K01      -0.617100
     20 N3          -1.2590     2.2950     0.6330 n          1 K01      -0.401800
     21 C2          -1.2460     3.7190     0.2190 c3         1 K01       0.099000
     22 C1          -2.4440     4.0680    -0.6800 c3         1 K01      -0.111600
     23 C23         -1.7790     1.9930     1.9930 c3         1 K01       0.099000
     24 C24         -0.8660     2.4970     3.1280 c3         1 K01      -0.111600
     25 H18          6.3630     1.2760    -0.9400 h4         1 K01       0.155000
     26 H19          7.0860    -1.2750    -0.8030 ha         1 K01       0.141000
     27 H20          5.0380    -2.8580    -0.4550 ha         1 K01       0.154000
     28 HN14         1.6550     0.0960    -0.3570 hn         1 K01       0.344500
     29 H111        -3.8050     0.6290     0.9380 hc         1 K01       0.050700
     30 H112        -3.3590     1.0970    -0.7010 hc         1 K01       0.050700
     31 H101        -5.6370    -0.0050    -0.5030 hc         1 K01       0.043200
     32 H102        -4.5650    -0.8200    -1.6420 hc         1 K01       0.043200
     33 H91         -4.9970    -1.6750     1.2880 hc         1 K01       0.041700
     34 H92         -5.7460    -2.4580    -0.1000 hc         1 K01       0.041700
     35 H81         -3.6610    -3.3240    -0.9100 hc         1 K01       0.050200
     36 H82         -3.5950    -3.5820     0.8250 hc         1 K01       0.050200
     37 H21         -1.2800     4.3660     1.1040 h1         1 K01       0.054700
     38 H22         -0.3160     3.9570    -0.3140 h1         1 K01       0.054700
     39 H11         -3.3880     3.8750    -0.1570 hc         1 K01       0.041033
     40 H12         -2.4140     5.1270    -0.9610 hc         1 K01       0.041033
     41 H13         -2.4250     3.4670    -1.5970 hc         1 K01       0.041033
     42 H231        -2.7710     2.4510     2.1010 h1         1 K01       0.054700
     43 H232        -1.8960     0.9130     2.1290 h1         1 K01       0.054700
     44 H241         0.1390     2.0690     3.0310 hc         1 K01       0.041033
     45 H242        -0.7810     3.5900     3.1230 hc         1 K01       0.041033
     46 H243        -1.2730     2.1960     4.1000 hc         1 K01       0.041033
@<TRIPOS>BOND
     1     1     2 2   
     2     2     3 1   
     3     2     8 1   
     4     3     4 1   
     5     3     7 2   
     6     4     5 1   
     7     5     6 2   
     8     5    25 1   
     9     6     7 1   
    10     6    26 1   
    11     7    27 1   
    12     8     9 1   
    13     8    28 1   
    14     9    10 1   
    15     9    17 2   
    16    10    11 1   
    17    11    12 2   
    18    11    16 1   
    19    12    13 1   
    20    12    17 1   
    21    13    14 1   
    22    13    29 1   
    23    13    30 1   
    24    14    15 1   
    25    14    31 1   
    26    14    32 1   
    27    15    16 1   
    28    15    33 1   
    29    15    34 1   
    30    16    35 1   
    31    16    36 1   
    32    17    18 1   
    33    18    19 2   
    34    18    20 1   
    35    20    21 1   
    36    20    23 1   
    37    21    22 1   
    38    21    37 1   
    39    21    38 1   
    40    22    39 1   
    41    22    40 1   
    42    22    41 1   
    43    23    24 1   
    44    23    42 1   
    45    23    43 1   
    46    24    44 1   
    47    24    45 1   
    48    24    46 1   
@<TRIPOS>SUBSTRUCTURE
     1 K01         1 TEMP              0 ****  ****    0 ROOT
