@<TRIPOS>MOLECULE
K01
   46    48     1     0     0
SMALL
bcc


@<TRIPOS>ATOM
      1 O21          2.0550    -2.5320     0.4170 o          1 K01      -0.574100
      2 C15          2.2630    -1.3970     0.0240 c          1 K01       0.711700
      3 C16          3.6230    -0.8620    -0.1290 cc         1 K01      -0.157700
      4 S17          3.9880     0.8180    -0.2770 ss         1 K01      -0.051800
      5 C18          5.6610     0.5000    -0.3830 cc         1 K01      -0.096100
      6 C19          5.9330    -0.8340    -0.2970 cd         1 K01      -0.164000
      7 C20          4.7640    -1.6160    -0.1450 cd         1 K01      -0.072000
      8 N14          1.2480    -0.5530    -0.2990 ns         1 K01      -0.445100
      9 C13         -0.0970    -0.8660    -0.1870 cc         1 K01       0.109500
     10 S12         -0.6790    -2.4680     0.1000 ss         1 K01       0.001200
     11 C7          -2.3180    -1.9280    -0.0000 cc         1 K01      -0.100400
     12 C6          -2.4040    -0.5900    -0.2310 cd         1 K01      -0.058300
     13 C11         -3.7190     0.1160    -0.3810 c6         1 K01      -0.013100
     14 C10         -4.8610    -0.8830    -0.5650 c6         1 K01      -0.072400
     15 C9          -4.7500    -2.0430     0.4190 c6         1 K01      -0.071400
     16 C8          -3.4790    -2.8540     0.1700 c6         1 K01       0.001900
     17 C5          -1.1180     0.0290    -0.3140 cd         1 K01      -0.225600
     18 C4          -0.8770     1.4780    -0.5780 c          1 K01       0.703700
     19 O22         -0.3890     1.8310    -1.6490 o          1 K01      -0.617100
     20 N3          -1.2050     2.3370     0.4010 n          1 K01      -0.468800
     21 C2          -1.0750     3.7710     0.1730 c3         1 K01       0.099000
     22 C1          -2.3740     4.3800    -0.3340 c3         1 K01      -0.111600
     23 C23         -1.5610     1.9270     1.7530 c3         1 K01       0.099000
     24 C24         -0.3550     1.8670     2.6760 c3         1 K01      -0.111600
     25 H18          6.3590     1.3160    -0.4920 h4         1 K01       0.173000
     26 H19          6.9330    -1.2400    -0.3390 ha         1 K01       0.159000
     27 H20          4.7640    -2.6930    -0.0630 ha         1 K01       0.172000
     28 HN14         1.4520     0.2930    -0.8150 hn         1 K01       0.344500
     29 H111        -3.9090     0.7410     0.4980 hc         1 K01       0.050700
     30 H112        -3.6820     0.8020    -1.2310 hc         1 K01       0.050700
     31 H101        -5.8170    -0.3710    -0.4460 hc         1 K01       0.043200
     32 H102        -4.8400    -1.2760    -1.5860 hc         1 K01       0.043200
     33 H91         -4.7400    -1.6540     1.4410 hc         1 K01       0.041700
     34 H92         -5.6200    -2.6970     0.3380 hc         1 K01       0.041700
     35 H81         -3.5990    -3.4740    -0.7240 hc         1 K01       0.050200
     36 H82         -3.3050    -3.5460     0.9970 hc         1 K01       0.050200
     37 H21         -0.7830     4.2360     1.1160 h1         1 K01       0.054700
     38 H22         -0.2660     3.9540    -0.5310 h1         1 K01       0.054700
     39 H11         -3.1850     4.2280     0.3790 hc         1 K01       0.041033
     40 H12         -2.2560     5.4530    -0.4830 hc         1 K01       0.041033
     41 H13         -2.6670     3.9360    -1.2850 hc         1 K01       0.041033
     42 H231        -2.3000     2.6340     2.1340 h1         1 K01       0.054700
     43 H232        -2.0540     0.9570     1.7340 h1         1 K01       0.054700
     44 H241         0.3610     1.1180     2.3330 hc         1 K01       0.041033
     45 H242         0.1590     2.8270     2.7320 hc         1 K01       0.041033
     46 H243        -0.6670     1.5970     3.6850 hc         1 K01       0.041033
@<TRIPOS>BOND
     1     1     2 2   
     2     2     3 1   
     3     2     8 1   
     4     3     4 1   
     5     3     7 2   
     6     4     5 1   
     7     5     6 2   
     8     5    25 1   
     9     6     7 1   
    10     6    26 1   
    11     7    27 1   
    12     8     9 1   
    13     8    28 1   
    14     9    10 1   
    15     9    17 2   
    16    10    11 1   
    17    11    12 2   
    18    11    16 1   
    19    12    13 1   
    20    12    17 1   
    21    13    14 1   
    22    13    29 1   
    23    13    30 1   
    24    14    15 1   
    25    14    31 1   
    26    14    32 1   
    27    15    16 1   
    28    15    33 1   
    29    15    34 1   
    30    16    35 1   
    31    16    36 1   
    32    17    18 1   
    33    18    19 2   
    34    18    20 1   
    35    20    21 1   
    36    20    23 1   
    37    21    22 1   
    38    21    37 1   
    39    21    38 1   
    40    22    39 1   
    41    22    40 1   
    42    22    41 1   
    43    23    24 1   
    44    23    42 1   
    45    23    43 1   
    46    24    44 1   
    47    24    45 1   
    48    24    46 1   
@<TRIPOS>SUBSTRUCTURE
     1 K01         1 TEMP              0 ****  ****    0 ROOT
