@<TRIPOS>MOLECULE
K02
   49    51     1     0     0
SMALL
No Charge or Current Charge


@<TRIPOS>ATOM
      1 O1           1.9380     2.0730    -0.3050 o          1 K02      -0.575100
      2 C13          0.8280     1.8470     0.1550 c          1 K02       0.644700
      3 C14         -0.0000     2.8810     0.8060 cc         1 K02      -0.303600
      4 S2          -1.6050     2.6020     1.4800 ss         1 K02       0.241000
      5 C15         -1.7220     4.2910     1.9670 cc         1 K02      -0.224000
      6 C16         -0.5900     4.9860     1.6190 cd         1 K02      -0.146000
      7 C17          0.3870     4.1910     0.9620 cd         1 K02      -0.054000
      8 N2           0.2250     0.6070     0.1160 ns         1 K02      -0.377100
      9 C12          0.7050    -0.5960    -0.3960 cc         1 K02      -0.036400
     10 S1           2.2870    -0.8560    -1.1350 ss         1 K02       0.294000
     11 C6           1.9430    -2.5640    -1.3270 cc         1 K02      -0.248300
     12 C5           0.6670    -2.8800    -0.9160 cd         1 K02      -0.055300
     13 C11          0.2100    -4.3360    -0.8210 c6         1 K02      -0.014100
     14 C9           1.0930    -5.2950    -1.6640 c6         1 K02      -0.060700
     15 C10          0.7460    -6.7810    -1.3810 c3         1 K02      -0.087100
     16 C8           2.5930    -5.0010    -1.4190 c6         1 K02      -0.068400
     17 C7           2.9530    -3.5600    -1.8480 c6         1 K02       0.003900
     18 C4          -0.0750    -1.7410    -0.4260 cd         1 K02      -0.225600
     19 C3          -1.4860    -1.7250     0.0950 c          1 K02       0.636700
     20 O2          -1.8290    -1.0020     1.0250 o          1 K02      -0.620100
     21 N1          -2.4380    -2.5270    -0.5770 n          1 K02      -0.400800
     22 C2          -3.6870    -2.9380     0.1070 c3         1 K02       0.100000
     23 C1          -3.5870    -4.3640     0.6730 c3         1 K02      -0.111600
     24 C18         -2.4020    -2.6750    -2.0570 c3         1 K02       0.100000
     25 C19         -3.2640    -1.6320    -2.7940 c3         1 K02      -0.111600
     26 H2          -0.6900     0.5770     0.5510 hn         1 K02       0.345500
     27 H17          1.3420     4.5830     0.6190 ha         1 K02       0.154000
     28 H15         -2.6140     4.6400     2.4710 h4         1 K02       0.155000
     29 H16         -0.4540     6.0430     1.8270 ha         1 K02       0.141000
     30 H7C1         2.9920    -3.5090    -2.9450 hc         1 K02       0.049700
     31 H7C2         3.9650    -3.3150    -1.4960 hc         1 K02       0.049700
     32 H111         0.2520    -4.6440     0.2330 hc         1 K02       0.053700
     33 H112        -0.8300    -4.4830    -1.1200 hc         1 K02       0.053700
     34 H9           0.8740    -5.1240    -2.7280 hc         1 K02       0.047700
     35 H101         0.9450    -7.0460    -0.3350 hc         1 K02       0.033700
     36 H102        -0.3130    -6.9850    -1.5810 hc         1 K02       0.033700
     37 H103         1.3370    -7.4530    -2.0140 hc         1 K02       0.033700
     38 H8C1         3.2200    -5.7150    -1.9720 hc         1 K02       0.043700
     39 H8C2         2.8290    -5.1370    -0.3540 hc         1 K02       0.043700
     40 H2C1        -3.9260    -2.2440     0.9230 h1         1 K02       0.053700
     41 H2C2        -4.5250    -2.9020    -0.6000 h1         1 K02       0.053700
     42 H181        -1.3780    -2.5890    -2.4350 h1         1 K02       0.053700
     43 H182        -2.7610    -3.6790    -2.3190 h1         1 K02       0.053700
     44 H1C1        -3.3930    -5.0860    -0.1290 hc         1 K02       0.041533
     45 H1C2        -2.7730    -4.4310     1.4050 hc         1 K02       0.041533
     46 H1C3        -4.5230    -4.6440     1.1710 hc         1 K02       0.041533
     47 H191        -4.3220    -1.7250    -2.5230 hc         1 K02       0.041533
     48 H192        -2.9300    -0.6170    -2.5490 hc         1 K02       0.041533
     49 H193        -3.1780    -1.7690    -3.8780 hc         1 K02       0.041533
@<TRIPOS>BOND
     1     1     2 2   
     2     2     3 1   
     3     2     8 1   
     4     3     4 1   
     5     3     7 2   
     6     4     5 1   
     7     5     6 2   
     8     5    28 1   
     9     6     7 1   
    10     6    29 1   
    11     7    27 1   
    12     8     9 1   
    13     8    26 1   
    14     9    10 1   
    15     9    18 2   
    16    10    11 1   
    17    11    12 2   
    18    11    17 1   
    19    12    13 1   
    20    12    18 1   
    21    13    14 1   
    22    13    32 1   
    23    13    33 1   
    24    14    15 1   
    25    14    16 1   
    26    14    34 1   
    27    15    35 1   
    28    15    36 1   
    29    15    37 1   
    30    16    17 1   
    31    16    38 1   
    32    16    39 1   
    33    17    30 1   
    34    17    31 1   
    35    18    19 1   
    36    19    20 2   
    37    19    21 1   
    38    21    22 1   
    39    21    24 1   
    40    22    23 1   
    41    22    40 1   
    42    22    41 1   
    43    23    44 1   
    44    23    45 1   
    45    23    46 1   
    46    24    25 1   
    47    24    42 1   
    48    24    43 1   
    49    25    47 1   
    50    25    48 1   
    51    25    49 1   
@<TRIPOS>SUBSTRUCTURE
     1 K02         1 TEMP              0 ****  ****    0 ROOT
