@<TRIPOS>MOLECULE
K02
   49    51     1     0     0
SMALL
bcc


@<TRIPOS>ATOM
      1 O1           1.4730     1.7970    -0.7320 o          1 K02      -0.575100
      2 C13          0.4720     1.6390    -0.0540 c          1 K02       0.711700
      3 C14         -0.2340     2.7700     0.5640 cc         1 K02      -0.158700
      4 S2          -1.8280     2.6800     1.2170 ss         1 K02      -0.048800
      5 C15         -1.7960     4.3250     1.6670 cc         1 K02      -0.097100
      6 C16         -0.6190     4.9240     1.3230 cd         1 K02      -0.164000
      7 C17          0.2760     4.0340     0.6870 cd         1 K02      -0.072000
      8 N2          -0.0510     0.4060     0.1760 ns         1 K02      -0.444100
      9 C12          0.4760    -0.7720    -0.3260 cc         1 K02       0.108500
     10 S1           2.0200    -0.8700    -1.0920 ss         1 K02       0.004200
     11 C6           1.8690    -2.5830    -1.2570 cc         1 K02      -0.103400
     12 C5           0.6870    -3.0440    -0.7690 cd         1 K02      -0.055300
     13 C11          0.3520    -4.5060    -0.7550 c6         1 K02      -0.014100
     14 C9           1.2330    -5.2980    -1.7220 c6         1 K02      -0.060700
     15 C10          1.0340    -6.7950    -1.5310 c3         1 K02      -0.087100
     16 C8           2.6960    -4.8960    -1.5460 c6         1 K02      -0.068400
     17 C7           2.9300    -3.4250    -1.8890 c6         1 K02       0.003900
     18 C4          -0.1310    -1.9920    -0.2460 cd         1 K02      -0.225600
     19 C3          -1.4660    -2.1630     0.3980 c          1 K02       0.703700
     20 O2          -1.5970    -1.9290     1.5980 o          1 K02      -0.620100
     21 N1          -2.4830    -2.5500    -0.3880 n          1 K02      -0.467800
     22 C2          -3.7950    -2.7870     0.2040 c3         1 K02       0.100000
     23 C1          -3.9680    -4.2310     0.6460 c3         1 K02      -0.111600
     24 C18         -2.4140    -2.5760    -1.8440 c3         1 K02       0.100000
     25 C19         -2.7670    -1.2340    -2.4650 c3         1 K02      -0.111600
     26 H2          -0.7510     0.2890     0.8960 hn         1 K02       0.345500
     27 H17          1.2610     4.3090     0.3390 ha         1 K02       0.172000
     28 H15         -2.6510     4.7680     2.1520 h4         1 K02       0.173000
     29 H16         -0.4030     5.9640     1.5190 ha         1 K02       0.159000
     30 H7C1         2.9150    -3.2910    -2.9760 hc         1 K02       0.049700
     31 H7C2         3.9240    -3.1160    -1.5580 hc         1 K02       0.049700
     32 H111         0.4860    -4.8930     0.2630 hc         1 K02       0.053700
     33 H112        -0.7020    -4.6700    -0.9970 hc         1 K02       0.053700
     34 H9           0.9280    -5.0350    -2.7430 hc         1 K02       0.047700
     35 H101         1.3480    -7.1080    -0.5320 hc         1 K02       0.033700
     36 H102        -0.0140    -7.0750    -1.6500 hc         1 K02       0.033700
     37 H103         1.6140    -7.3670    -2.2570 hc         1 K02       0.033700
     38 H8C1         3.3350    -5.5170    -2.1780 hc         1 K02       0.043700
     39 H8C2         2.9970    -5.0850    -0.5100 hc         1 K02       0.043700
     40 H2C1        -3.9450    -2.1080     1.0420 h1         1 K02       0.053700
     41 H2C2        -4.5470    -2.5330    -0.5420 h1         1 K02       0.053700
     42 H181        -1.4230    -2.8810    -2.1720 h1         1 K02       0.053700
     43 H182        -3.0990    -3.3510    -2.1920 h1         1 K02       0.053700
     44 H1C1        -3.8350    -4.9190    -0.1900 hc         1 K02       0.041533
     45 H1C2        -3.2490    -4.4950     1.4220 hc         1 K02       0.041533
     46 H1C3        -4.9700    -4.3840     1.0490 hc         1 K02       0.041533
     47 H191        -3.7660    -0.9040    -2.1800 hc         1 K02       0.041533
     48 H192        -2.0540    -0.4660    -2.1590 hc         1 K02       0.041533
     49 H193        -2.7370    -1.3050    -3.5520 hc         1 K02       0.041533
@<TRIPOS>BOND
     1     1     2 2   
     2     2     3 1   
     3     2     8 1   
     4     3     4 1   
     5     3     7 2   
     6     4     5 1   
     7     5     6 2   
     8     5    28 1   
     9     6     7 1   
    10     6    29 1   
    11     7    27 1   
    12     8     9 1   
    13     8    26 1   
    14     9    10 1   
    15     9    18 2   
    16    10    11 1   
    17    11    12 2   
    18    11    17 1   
    19    12    13 1   
    20    12    18 1   
    21    13    14 1   
    22    13    32 1   
    23    13    33 1   
    24    14    15 1   
    25    14    16 1   
    26    14    34 1   
    27    15    35 1   
    28    15    36 1   
    29    15    37 1   
    30    16    17 1   
    31    16    38 1   
    32    16    39 1   
    33    17    30 1   
    34    17    31 1   
    35    18    19 1   
    36    19    20 2   
    37    19    21 1   
    38    21    22 1   
    39    21    24 1   
    40    22    23 1   
    41    22    40 1   
    42    22    41 1   
    43    23    44 1   
    44    23    45 1   
    45    23    46 1   
    46    24    25 1   
    47    24    42 1   
    48    24    43 1   
    49    25    47 1   
    50    25    48 1   
    51    25    49 1   
@<TRIPOS>SUBSTRUCTURE
     1 K02         1 TEMP              0 ****  ****    0 ROOT
