@<TRIPOS>MOLECULE
K03
   52    54     1     0     0
SMALL
bcc


@<TRIPOS>ATOM
      1 O12         -2.0300     1.0260     0.7780 o          1 K03      -0.571100
      2 C11         -1.6180     0.1950    -0.0130 c          1 K03       0.710700
      3 C13         -2.5220    -0.6190    -0.8360 cc         1 K03      -0.157700
      4 S17         -2.0680    -2.1170    -1.5610 ss         1 K03      -0.057800
      5 C16         -3.6230    -2.3260    -2.2310 cc         1 K03      -0.096100
      6 C15         -4.4600    -1.3000    -1.9050 cd         1 K03      -0.163000
      7 C14         -3.8320    -0.3230    -1.0980 cd         1 K03      -0.071000
      8 N10         -0.2900    -0.0370    -0.1840 ns         1 K03      -0.446100
      9 C9           0.7150     0.5660     0.5560 cc         1 K03       0.105500
     10 S18          0.4390     1.9080     1.6120 ss         1 K03       0.000200
     11 C19          2.1210     1.9960     1.9980 cc         1 K03      -0.100400
     12 C26          2.8430     1.0390     1.3570 cd         1 K03      -0.054300
     13 C25          4.3270     0.9140     1.5110 c6         1 K03      -0.010100
     14 C22          4.8450     1.6260     2.7690 c6         1 K03      -0.044000
     15 C24          4.5040     0.8030     4.0120 c3         1 K03      -0.083600
     16 C23          6.3610     1.7730     2.6670 c3         1 K03      -0.083600
     17 C21          4.2050     3.0190     2.8510 c6         1 K03      -0.063400
     18 C20          2.6800     2.9860     2.9650 c6         1 K03       0.004900
     19 C8           2.0290     0.2050     0.5310 cd         1 K03      -0.222600
     20 C6           2.5790    -0.8810    -0.3360 c          1 K03       0.699700
     21 O7           2.8160    -0.6560    -1.5180 o          1 K03      -0.606100
     22 N3           2.7940    -2.0710     0.2470 n          1 K03      -0.472800
     23 C4           3.3810    -3.1550    -0.5310 c3         1 K03       0.101000
     24 C5           4.8990    -3.1600    -0.4500 c3         1 K03      -0.112100
     25 C2           2.4240    -2.3830     1.6210 c3         1 K03       0.101000
     26 C1           1.0320    -2.9870     1.7280 c3         1 K03      -0.112100
     27 H10          0.0130    -0.5600    -0.9940 hn         1 K03       0.338500
     28 H14         -4.3220     0.5680    -0.7330 ha         1 K03       0.172000
     29 H16         -3.8430    -3.2030    -2.8190 h4         1 K03       0.173000
     30 H15         -5.4890    -1.2470    -2.2290 ha         1 K03       0.160000
     31 H201         2.2780     3.9850     2.7790 hc         1 K03       0.049200
     32 H202         2.3770     2.7260     3.9840 hc         1 K03       0.049200
     33 H251         4.6260    -0.1400     1.5390 hc         1 K03       0.055200
     34 H252         4.8150     1.3340     0.6230 hc         1 K03       0.055200
     35 H241         4.8650     1.2990     4.9160 hc         1 K03       0.033700
     36 H242         3.4310     0.6440     4.1280 hc         1 K03       0.033700
     37 H243         4.9780    -0.1800     3.9630 hc         1 K03       0.033700
     38 H231         6.6420     2.3900     1.8110 hc         1 K03       0.033700
     39 H232         6.7720     2.2400     3.5650 hc         1 K03       0.033700
     40 H233         6.8450     0.8010     2.5480 hc         1 K03       0.033700
     41 H211         4.4840     3.5870     1.9580 hc         1 K03       0.042700
     42 H212         4.6170     3.5630     3.7060 hc         1 K03       0.042700
     43 H4C1         2.9790    -4.0930    -0.1460 h1         1 K03       0.053700
     44 H4C2         3.0540    -3.0740    -1.5660 h1         1 K03       0.053700
     45 H2C1         3.1670    -3.0810     2.0110 h1         1 K03       0.053700
     46 H2C2         2.4890    -1.4910     2.2400 h1         1 K03       0.053700
     47 H5C1         5.3170    -2.2370    -0.8510 hc         1 K03       0.041200
     48 H5C2         5.2420    -3.2710     0.5790 hc         1 K03       0.041200
     49 H5C3         5.3030    -3.9930    -1.0270 hc         1 K03       0.041200
     50 H1C1         0.2710    -2.2730     1.4130 hc         1 K03       0.041200
     51 H1C2         0.9350    -3.8820     1.1130 hc         1 K03       0.041200
     52 H1C3         0.8230    -3.2640     2.7610 hc         1 K03       0.041200
@<TRIPOS>BOND
     1     1     2 2   
     2     2     3 1   
     3     2     8 1   
     4     3     4 1   
     5     3     7 2   
     6     4     5 1   
     7     5     6 2   
     8     5    29 1   
     9     6     7 1   
    10     6    30 1   
    11     7    28 1   
    12     8     9 1   
    13     8    27 1   
    14     9    10 1   
    15     9    19 2   
    16    10    11 1   
    17    11    12 2   
    18    11    18 1   
    19    12    13 1   
    20    12    19 1   
    21    13    14 1   
    22    13    33 1   
    23    13    34 1   
    24    14    15 1   
    25    14    16 1   
    26    14    17 1   
    27    15    35 1   
    28    15    36 1   
    29    15    37 1   
    30    16    38 1   
    31    16    39 1   
    32    16    40 1   
    33    17    18 1   
    34    17    41 1   
    35    17    42 1   
    36    18    31 1   
    37    18    32 1   
    38    19    20 1   
    39    20    21 2   
    40    20    22 1   
    41    22    23 1   
    42    22    25 1   
    43    23    24 1   
    44    23    43 1   
    45    23    44 1   
    46    24    47 1   
    47    24    48 1   
    48    24    49 1   
    49    25    26 1   
    50    25    45 1   
    51    25    46 1   
    52    26    50 1   
    53    26    51 1   
    54    26    52 1   
@<TRIPOS>SUBSTRUCTURE
     1 K03         1 TEMP              0 ****  ****    0 ROOT
