@<TRIPOS>MOLECULE
K03
   52    54     1     0     0
SMALL
No Charge or Current Charge


@<TRIPOS>ATOM
      1 O12         -2.3830     1.5130     0.3160 o          1 K03      -0.571100
      2 C11         -1.9140     0.5560    -0.2840 c          1 K03       0.643700
      3 C13         -2.7030    -0.2830    -1.2060 cc         1 K03      -0.302600
      4 S17         -2.0690    -1.6710    -2.0890 ss         1 K03       0.232000
      5 C16         -3.6410    -1.9520    -2.8290 cc         1 K03      -0.223000
      6 C15         -4.5610    -1.0250    -2.4040 cd         1 K03      -0.145000
      7 C14         -4.0330    -0.0790    -1.4850 cd         1 K03      -0.053000
      8 N10         -0.6000     0.1520    -0.1650 ns         1 K03      -0.379100
      9 C9           0.4320     0.7050     0.5900 cc         1 K03      -0.039400
     10 S18          0.3190     2.1360     1.6180 ss         1 K03       0.290000
     11 C19          2.0230     2.0190     2.0110 cc         1 K03      -0.245300
     12 C26          2.6090     0.9180     1.4280 cd         1 K03      -0.054300
     13 C25          4.1230     0.7180     1.4800 c6         1 K03      -0.010100
     14 C22          4.7810     1.4270     2.7010 c6         1 K03      -0.044000
     15 C24          4.4440     0.6670     4.0240 c3         1 K03      -0.083600
     16 C23          6.3320     1.4040     2.5480 c3         1 K03      -0.083600
     17 C21          4.2830     2.9030     2.7470 c6         1 K03      -0.063400
     18 C20          2.7440     3.0200     2.8860 c6         1 K03       0.004900
     19 C8           1.6850     0.1180     0.6560 cd         1 K03      -0.222600
     20 C6           1.9780    -1.1590    -0.0840 c          1 K03       0.632700
     21 O7           1.4500    -1.4230    -1.1590 o          1 K03      -0.606100
     22 N3           2.8360    -2.0940     0.5420 n          1 K03      -0.405800
     23 C4           3.5210    -3.1360    -0.2610 c3         1 K03       0.101000
     24 C5           4.9700    -2.7440    -0.5940 c3         1 K03      -0.112100
     25 C2           2.8230    -2.2850     2.0190 c3         1 K03       0.101000
     26 C1           1.8670    -3.4030     2.4780 c3         1 K03      -0.112100
     27 H10         -0.3600    -0.6490    -0.7370 hn         1 K03       0.338500
     28 H14         -4.6250     0.7230    -1.0500 ha         1 K03       0.154000
     29 H16         -3.7670    -2.7770    -3.5190 h4         1 K03       0.155000
     30 H15         -5.5950    -1.0160    -2.7390 ha         1 K03       0.142000
     31 H201         2.4340     4.0460     2.6410 hc         1 K03       0.049200
     32 H202         2.4600     2.8660     3.9360 hc         1 K03       0.049200
     33 H251         4.4280    -0.3300     1.4740 hc         1 K03       0.055200
     34 H252         4.5490     1.1350     0.5570 hc         1 K03       0.055200
     35 H241         4.8690     1.1770     4.8970 hc         1 K03       0.033700
     36 H242         3.3630     0.5820     4.1870 hc         1 K03       0.033700
     37 H243         4.8460    -0.3540     4.0110 hc         1 K03       0.033700
     38 H231         6.6520     1.9280     1.6390 hc         1 K03       0.033700
     39 H232         6.8260     1.8920     3.3980 hc         1 K03       0.033700
     40 H233         6.7140     0.3780     2.4870 hc         1 K03       0.033700
     41 H211         4.5920     3.4170     1.8260 hc         1 K03       0.042700
     42 H212         4.7660     3.4460     3.5720 hc         1 K03       0.042700
     43 H4C1         3.5350    -4.0820     0.2950 h1         1 K03       0.053700
     44 H4C2         2.9760    -3.3230    -1.1940 h1         1 K03       0.053700
     45 H2C1         3.8400    -2.5290     2.3520 h1         1 K03       0.053700
     46 H2C2         2.5280    -1.3640     2.5320 h1         1 K03       0.053700
     47 H5C1         4.9930    -1.8130    -1.1730 hc         1 K03       0.041200
     48 H5C2         5.5510    -2.5960     0.3240 hc         1 K03       0.041200
     49 H5C3         5.4520    -3.5310    -1.1850 hc         1 K03       0.041200
     50 H1C1         0.8420    -3.1860     2.1560 hc         1 K03       0.041200
     51 H1C2         2.1620    -4.3750     2.0690 hc         1 K03       0.041200
     52 H1C3         1.8740    -3.4780     3.5720 hc         1 K03       0.041200
@<TRIPOS>BOND
     1     1     2 2   
     2     2     3 1   
     3     2     8 1   
     4     3     4 1   
     5     3     7 2   
     6     4     5 1   
     7     5     6 2   
     8     5    29 1   
     9     6     7 1   
    10     6    30 1   
    11     7    28 1   
    12     8     9 1   
    13     8    27 1   
    14     9    10 1   
    15     9    19 2   
    16    10    11 1   
    17    11    12 2   
    18    11    18 1   
    19    12    13 1   
    20    12    19 1   
    21    13    14 1   
    22    13    33 1   
    23    13    34 1   
    24    14    15 1   
    25    14    16 1   
    26    14    17 1   
    27    15    35 1   
    28    15    36 1   
    29    15    37 1   
    30    16    38 1   
    31    16    39 1   
    32    16    40 1   
    33    17    18 1   
    34    17    41 1   
    35    17    42 1   
    36    18    31 1   
    37    18    32 1   
    38    19    20 1   
    39    20    21 2   
    40    20    22 1   
    41    22    23 1   
    42    22    25 1   
    43    23    24 1   
    44    23    43 1   
    45    23    44 1   
    46    24    47 1   
    47    24    48 1   
    48    24    49 1   
    49    25    26 1   
    50    25    45 1   
    51    25    46 1   
    52    26    50 1   
    53    26    51 1   
    54    26    52 1   
@<TRIPOS>SUBSTRUCTURE
     1 K03         1 TEMP              0 ****  ****    0 ROOT
