@<TRIPOS>MOLECULE
K04
   25    26     1     0     0
SMALL
abcg2


@<TRIPOS>ATOM
      1 N1           3.9760    -0.9920     0.0930 nc         1 K04      -0.277000
      2 C4          -1.9060     0.0240     0.5710 c5         1 K04       0.100300
      3 C5          -0.4780     0.3550     0.1990 c          1 K04       0.579100
      4 C6           1.7640    -0.4820     0.2440 cd         1 K04      -0.108400
      5 C7           2.7660    -1.3610     0.5650 cc         1 K04       0.134900
      6 N            0.4410    -0.5800     0.5730 ns         1 K04      -0.371100
      7 O           -2.6430     1.2040     0.7320 os         1 K04      -0.428000
      8 C1          -2.5750    -0.8000    -0.5560 c5         1 K04      -0.092700
      9 C2          -3.9840    -0.2150    -0.5440 c5         1 K04      -0.113400
     10 C3          -3.7150     1.2380    -0.2070 c5         1 K04       0.152600
     11 N2           3.9860     0.0960    -0.5600 nd         1 K04      -0.187100
     12 O1          -0.1470     1.3400    -0.4290 o          1 K04      -0.540100
     13 S            2.4540     0.7900    -0.6560 ss         1 K04       0.348100
     14 H1          -1.9150    -0.5480     1.5090 h1         1 K04       0.066700
     15 H2           2.6530    -2.2720     1.1330 h4         1 K04       0.049100
     16 H3           0.1570    -1.3650     1.1430 hn         1 K04       0.333500
     17 H7          -2.1100    -0.5440    -1.5140 hc         1 K04       0.072700
     18 H8          -4.4940    -0.3410    -1.5000 hc         1 K04       0.062200
     19 H9          -4.5920    -0.6900     0.2310 hc         1 K04       0.062200
     20 H10         -4.5620     1.7470     0.2530 h1         1 K04       0.059200
     21 H11         -3.4220     1.8000    -1.1010 h1         1 K04       0.059200
     22 C           -2.4950    -2.3010    -0.3490 c3         1 K04      -0.087100
     23 H4          -2.9520    -2.5890     0.5990 hc         1 K04       0.042033
     24 H5          -3.0160    -2.8270    -1.1490 hc         1 K04       0.042033
     25 H6          -1.4630    -2.6570    -0.3490 hc         1 K04       0.042033
@<TRIPOS>BOND
     1     1     5 1   
     2     1    11 2   
     3     2     3 1   
     4     2     7 1   
     5     2     8 1   
     6     2    14 1   
     7     3     6 1   
     8     3    12 2   
     9     4     5 2   
    10     4     6 1   
    11     4    13 1   
    12     5    15 1   
    13     6    16 1   
    14     7    10 1   
    15     8     9 1   
    16     8    17 1   
    17     8    22 1   
    18     9    10 1   
    19     9    18 1   
    20     9    19 1   
    21    10    20 1   
    22    10    21 1   
    23    11    13 1   
    24    22    23 1   
    25    22    24 1   
    26    22    25 1   
@<TRIPOS>SUBSTRUCTURE
     1 K04         1 TEMP              0 ****  ****    0 ROOT
