@<TRIPOS>MOLECULE
K04
   25    26     1     0     0
SMALL
No Charge or Current Charge


@<TRIPOS>ATOM
      1 N1           4.0040    -1.1650     0.1640 nc         1 K04      -0.277000
      2 C4          -1.8990     0.0380     0.6210 c5         1 K04       0.100300
      3 C5          -0.4940     0.5350     0.1340 c          1 K04       0.579100
      4 C6           1.8320    -0.3960     0.1760 cd         1 K04      -0.108400
      5 C7           2.6930    -1.4090     0.4910 cc         1 K04       0.134900
      6 N            0.4570    -0.4370     0.4200 ns         1 K04      -0.371100
      7 O           -2.8090     1.1520     0.8630 os         1 K04      -0.428000
      8 C1          -2.5830    -0.8200    -0.5070 c5         1 K04      -0.092700
      9 C2          -4.0350    -0.2670    -0.4970 c5         1 K04      -0.113400
     10 C3          -3.7440     1.2210    -0.2290 c5         1 K04       0.152600
     11 N2           4.1670     0.0140    -0.3960 nd         1 K04      -0.187100
     12 O1          -0.2270     1.6250    -0.3600 o          1 K04      -0.540100
     13 S            2.7510     0.8970    -0.5600 ss         1 K04       0.348100
     14 H1          -1.7860    -0.5200     1.5600 h1         1 K04       0.066700
     15 H2           2.4420    -2.3530     0.9580 h4         1 K04       0.049100
     16 H3           0.0740    -1.2700     0.8540 hn         1 K04       0.333500
     17 H7          -2.1210    -0.6060    -1.4790 hc         1 K04       0.072700
     18 H8          -4.5600    -0.4310    -1.4450 hc         1 K04       0.062200
     19 H9          -4.6420    -0.7040     0.3050 hc         1 K04       0.062200
     20 H10         -4.6340     1.7910     0.0680 h1         1 K04       0.059200
     21 H11         -3.2680     1.7140    -1.0890 h1         1 K04       0.059200
     22 C           -2.4900    -2.3500    -0.3150 c3         1 K04      -0.087100
     23 H4          -2.9200    -2.6590     0.6460 hc         1 K04       0.042033
     24 H5          -3.0320    -2.8790    -1.1090 hc         1 K04       0.042033
     25 H6          -1.4480    -2.6920    -0.3420 hc         1 K04       0.042033
@<TRIPOS>BOND
     1     1     5 1   
     2     1    11 2   
     3     2     3 1   
     4     2     7 1   
     5     2     8 1   
     6     2    14 1   
     7     3     6 1   
     8     3    12 2   
     9     4     5 2   
    10     4     6 1   
    11     4    13 1   
    12     5    15 1   
    13     6    16 1   
    14     7    10 1   
    15     8     9 1   
    16     8    17 1   
    17     8    22 1   
    18     9    10 1   
    19     9    18 1   
    20     9    19 1   
    21    10    20 1   
    22    10    21 1   
    23    11    13 1   
    24    22    23 1   
    25    22    24 1   
    26    22    25 1   
@<TRIPOS>SUBSTRUCTURE
     1 K04         1 TEMP              0 ****  ****    0 ROOT
