@<TRIPOS>MOLECULE
K05
   41    43     1     0     0
SMALL
No Charge or Current Charge


@<TRIPOS>ATOM
      1 N1          45.8520   -25.1100    18.0500 n2         1 K05      -0.419300
      2 N2          46.2900   -24.5080    19.2190 ns         1 K05      -0.285900
      3 C3          47.3840   -24.9500    19.9600 c          1 K05       0.634700
      4 O3          48.0560   -25.9140    19.6070 o          1 K05      -0.556100
      5 C1          47.7080   -24.1710    21.2250 ca         1 K05      -0.152600
      6 C2          46.9470   -23.0490    21.6470 ca         1 K05      -0.147000
      7 C7          47.2810   -22.3540    22.8250 ca         1 K05       0.098100
      8 C4          48.3860   -22.7740    23.6040 ca         1 K05       0.134100
      9 C5          49.1430   -23.8820    23.1930 ca         1 K05      -0.183000
     10 C6          48.8080   -24.5740    22.0170 ca         1 K05      -0.044000
     11 OH3         48.7320   -22.1160    24.7550 oh         1 K05      -0.512100
     12 OH4         46.5240   -21.2750    23.2040 oh         1 K05      -0.515100
     13 C11         46.4130   -24.7940    16.9210 ce         1 K05       0.393800
     14 C12         46.0090   -25.4330    15.6320 ca         1 K05      -0.157900
     15 C13         45.6630   -24.5770    14.5640 ca         1 K05       0.155100
     16 O13         45.7560   -23.2110    14.7640 os         1 K05      -0.363100
     17 C14         45.2190   -25.1140    13.3390 ca         1 K05      -0.190000
     18 C15         45.1150   -26.5010    13.1740 ca         1 K05      -0.044000
     19 C25         45.4650   -27.3660    14.2220 ca         1 K05      -0.076000
     20 C16         45.3670   -28.7570    14.0250 ca         1 K05      -0.095000
     21 C17         45.7320   -29.6440    15.0480 ca         1 K05      -0.113000
     22 C18         46.2070   -29.1430    16.2680 ca         1 K05      -0.097000
     23 C19         46.3060   -27.7560    16.4720 ca         1 K05      -0.098000
     24 C29         45.9210   -26.8440    15.4590 ca         1 K05       0.024000
     25 C10         45.4200   -22.2530    13.7440 c3         1 K05       0.153900
     26 HN2         45.8020   -23.7020    19.5950 hn         1 K05       0.304500
     27 H2          46.0940   -22.7060    21.0680 ha         1 K05       0.113000
     28 H5          49.9950   -24.2160    23.7810 ha         1 K05       0.123000
     29 H6          49.4120   -25.4300    21.7210 ha         1 K05       0.141000
     30 HOH3        49.5170   -22.5580    25.1420 ho         1 K05       0.463000
     31 HOH4        45.8100   -21.1400    22.5460 ho         1 K05       0.458000
     32 H112        47.0830   -23.9330    16.8530 h4         1 K05      -0.005200
     33 H14         44.9440   -24.4740    12.5060 ha         1 K05       0.118000
     34 H15         44.7670   -26.9030    12.2240 ha         1 K05       0.115000
     35 H16         45.0110   -29.1530    13.0760 ha         1 K05       0.109000
     36 H17         45.6570   -30.7180    14.8910 ha         1 K05       0.114000
     37 H18         46.5050   -29.8300    17.0570 ha         1 K05       0.117000
     38 H19         46.7000   -27.4120    17.4230 ha         1 K05       0.152000
     39 H101        45.5690   -21.2320    14.1170 h1         1 K05       0.044367
     40 H102        46.0550   -22.3860    12.8580 h1         1 K05       0.044367
     41 H103        44.3690   -22.3540    13.4430 h1         1 K05       0.044367
@<TRIPOS>BOND
     1     1     2 1   
     2     1    13 2   
     3     2     3 1   
     4     2    26 1   
     5     3     4 2   
     6     3     5 1   
     7     5     6 ar  
     8     5    10 ar  
     9     6     7 ar  
    10     6    27 1   
    11     7     8 ar  
    12     7    12 1   
    13     8     9 ar  
    14     8    11 1   
    15     9    10 ar  
    16     9    28 1   
    17    10    29 1   
    18    11    30 1   
    19    12    31 1   
    20    13    14 1   
    21    13    32 1   
    22    14    15 ar  
    23    14    24 ar  
    24    15    16 1   
    25    15    17 ar  
    26    16    25 1   
    27    17    18 ar  
    28    17    33 1   
    29    18    19 ar  
    30    18    34 1   
    31    19    20 ar  
    32    19    24 ar  
    33    20    21 ar  
    34    20    35 1   
    35    21    22 ar  
    36    21    36 1   
    37    22    23 ar  
    38    22    37 1   
    39    23    24 ar  
    40    23    38 1   
    41    25    39 1   
    42    25    40 1   
    43    25    41 1   
@<TRIPOS>SUBSTRUCTURE
     1 K05         1 TEMP              0 ****  ****    0 ROOT
