@<TRIPOS>MOLECULE
K05
   41    43     1     0     0
SMALL
abcg2


@<TRIPOS>ATOM
      1 N1          46.5670   -25.5030    18.0630 n2         1 K05      -0.419300
      2 N2          46.9740   -24.7470    19.1190 ns         1 K05      -0.285900
      3 C3          47.2280   -25.3090    20.3380 c          1 K05       0.634700
      4 O3          47.1690   -26.5200    20.5340 o          1 K05      -0.556100
      5 C1          47.5980   -24.3450    21.4120 ca         1 K05      -0.152600
      6 C2          47.2010   -23.0020    21.4010 ca         1 K05      -0.147000
      7 C7          47.5590   -22.1450    22.4300 ca         1 K05       0.098100
      8 C4          48.3310   -22.6270    23.4990 ca         1 K05       0.134100
      9 C5          48.7220   -23.9620    23.5120 ca         1 K05      -0.183000
     10 C6          48.3540   -24.8170    22.4830 ca         1 K05      -0.044000
     11 OH3         48.6530   -21.7470    24.4830 oh         1 K05      -0.512100
     12 OH4         47.1860   -20.8340    22.4710 oh         1 K05      -0.515100
     13 C11         46.3690   -24.8610    16.9680 ce         1 K05       0.393800
     14 C12         45.9360   -25.4570    15.7140 ca         1 K05      -0.157900
     15 C13         45.4870   -24.5650    14.7280 ca         1 K05       0.155100
     16 O13         45.4660   -23.2500    15.0510 os         1 K05      -0.363100
     17 C14         45.0540   -25.0230    13.4660 ca         1 K05      -0.190000
     18 C15         45.0650   -26.3600    13.1830 ca         1 K05      -0.044000
     19 C25         45.5110   -27.3080    14.1300 ca         1 K05      -0.076000
     20 C16         45.5270   -28.6870    13.8110 ca         1 K05      -0.095000
     21 C17         45.9750   -29.6150    14.7150 ca         1 K05      -0.113000
     22 C18         46.4300   -29.1840    15.9760 ca         1 K05      -0.097000
     23 C19         46.4200   -27.8520    16.3190 ca         1 K05      -0.098000
     24 C29         45.9570   -26.8630    15.4140 ca         1 K05       0.024000
     25 C10         45.0820   -22.2840    14.0690 c3         1 K05       0.153900
     26 HN2         47.1350   -23.7560    18.9770 hn         1 K05       0.304500
     27 H2          46.5770   -22.6050    20.6090 ha         1 K05       0.113000
     28 H5          49.3190   -24.3260    24.3390 ha         1 K05       0.123000
     29 H6          48.6600   -25.8530    22.5030 ha         1 K05       0.141000
     30 HOH3        49.1780   -22.1900    25.1640 ho         1 K05       0.463000
     31 HOH4        46.6720   -20.6150    21.6820 ho         1 K05       0.458000
     32 H112        46.5100   -23.7800    16.9460 h4         1 K05      -0.005200
     33 H14         44.7060   -24.3200    12.7240 ha         1 K05       0.118000
     34 H15         44.7260   -26.7090    12.2150 ha         1 K05       0.115000
     35 H16         45.1790   -28.9900    12.8310 ha         1 K05       0.109000
     36 H17         45.9850   -30.6680    14.4640 ha         1 K05       0.114000
     37 H18         46.7930   -29.9120    16.6900 ha         1 K05       0.117000
     38 H19         46.7650   -27.5500    17.2930 ha         1 K05       0.152000
     39 H101        45.1850   -21.3190    14.5570 h1         1 K05       0.044367
     40 H102        45.7380   -22.3290    13.1980 h1         1 K05       0.044367
     41 H103        44.0450   -22.4310    13.7610 h1         1 K05       0.044367
@<TRIPOS>BOND
     1     1     2 1   
     2     1    13 2   
     3     2     3 1   
     4     2    26 1   
     5     3     4 2   
     6     3     5 1   
     7     5     6 ar  
     8     5    10 ar  
     9     6     7 ar  
    10     6    27 1   
    11     7     8 ar  
    12     7    12 1   
    13     8     9 ar  
    14     8    11 1   
    15     9    10 ar  
    16     9    28 1   
    17    10    29 1   
    18    11    30 1   
    19    12    31 1   
    20    13    14 1   
    21    13    32 1   
    22    14    15 ar  
    23    14    24 ar  
    24    15    16 1   
    25    15    17 ar  
    26    16    25 1   
    27    17    18 ar  
    28    17    33 1   
    29    18    19 ar  
    30    18    34 1   
    31    19    20 ar  
    32    19    24 ar  
    33    20    21 ar  
    34    20    35 1   
    35    21    22 ar  
    36    21    36 1   
    37    22    23 ar  
    38    22    37 1   
    39    23    24 ar  
    40    23    38 1   
    41    25    39 1   
    42    25    40 1   
    43    25    41 1   
@<TRIPOS>SUBSTRUCTURE
     1 K05         1 TEMP              0 ****  ****    0 ROOT
