@<TRIPOS>MOLECULE
K06
   62    66     1     0     0
SMALL
abcg2


@<TRIPOS>ATOM
      1 C1          -6.3350     1.0300    -7.3780 c3         1 K06      -0.103100
      2 C2          -5.1810     2.0020    -7.2610 cy         1 K06       0.155000
      3 C4          -5.0990     3.1520    -8.2840 cy         1 K06      -0.081400
      4 C5          -4.8240     4.1610    -7.1330 cy         1 K06       0.193500
      5 C7          -5.2380     3.0520    -6.1240 cy         1 K06      -0.081400
      6 C8          -3.3850     4.6340    -7.0170 ca         1 K06      -0.083300
      7 C11         -0.7790     5.7050    -6.7960 cp         1 K06      -0.146500
      8 C12         -1.5230     5.3860    -5.6580 ca         1 K06      -0.076500
      9 C16          2.7620     6.0350    -7.4580 ca         1 K06       0.544300
     10 C18          4.9560     5.3270    -7.8950 c6         1 K06       0.078600
     11 C19          5.5110     6.5970    -7.2820 c          1 K06       0.540000
     12 O20          6.7090     6.8360    -7.3440 o          1 K06      -0.532000
     13 C23          4.6070     9.8870    -6.7440 c3         1 K06      -0.093400
     14 C24          5.1130     9.9500    -8.1820 c3         1 K06      -0.089100
     15 C27          0.9730     7.2530    -5.8020 cq         1 K06      -0.072000
     16 C30         -2.0050     9.3290    -4.7430 ca         1 K06      -0.111500
     17 C31         -1.7910     9.4460    -3.3720 ca         1 K06      -0.104000
     18 C32         -0.6750     8.8480    -2.7960 ca         1 K06      -0.111500
     19 C33          0.2190     8.1330    -3.5860 ca         1 K06      -0.095000
     20 O3          -3.9260     1.3050    -7.2810 oh         1 K06      -0.653000
     21 N6          -5.7590     5.3000    -7.1410 n8         1 K06      -0.983200
     22 C9          -2.6390     4.9550    -8.1530 ca         1 K06      -0.110000
     23 C10         -1.3560     5.4740    -8.0460 ca         1 K06      -0.076500
     24 C13         -2.8000     4.8570    -5.7690 ca         1 K06      -0.110000
     25 C14          0.6000     6.2380    -6.6950 cp         1 K06       0.428500
     26 N15          1.5060     5.6640    -7.5080 nb         1 K06      -0.664000
     27 O17          3.6030     5.4390    -8.3440 os         1 K06      -0.436300
     28 N21          4.6080     7.3910    -6.6390 n          1 K06      -0.210400
     29 C22          5.0600     8.6330    -5.9970 c3         1 K06       0.095000
     30 C25          3.2510     7.0190    -6.5850 ca         1 K06      -0.122000
     31 C26          2.3220     7.6200    -5.7540 ca         1 K06      -0.089000
     32 C28          0.0060     7.9980    -4.9600 cq         1 K06      -0.038000
     33 C29         -1.1150     8.6100    -5.5290 ca         1 K06      -0.095000
     34 H1          -6.3400     0.3410    -6.5280 hc         1 K06       0.044367
     35 H2          -7.2880     1.5610    -7.3920 hc         1 K06       0.044367
     36 H3          -6.2470     0.4460    -8.2970 hc         1 K06       0.044367
     37 H4          -4.3350     3.0330    -9.0500 hc         1 K06       0.066200
     38 H5          -6.0610     3.3530    -8.7530 hc         1 K06       0.066200
     39 H6          -6.2520     3.2160    -5.7610 hc         1 K06       0.066200
     40 H7          -4.5740     2.8630    -5.2820 hc         1 K06       0.066200
     41 H8          -1.0950     5.5420    -4.6760 ha         1 K06       0.123500
     42 H9           5.0400     4.5190    -7.1590 h1         1 K06       0.090200
     43 H10          5.5530     5.0760    -8.7660 h1         1 K06       0.090200
     44 H11          4.9750    10.7450    -6.1760 hc         1 K06       0.046700
     45 H12          3.5160     9.9540    -6.7330 hc         1 K06       0.046700
     46 H13          4.7810    10.8690    -8.6680 hc         1 K06       0.039367
     47 H14          6.2040     9.9230    -8.2170 hc         1 K06       0.039367
     48 H15          4.7370     9.1110    -8.7700 hc         1 K06       0.039367
     49 H16         -2.8650     9.8000    -5.2010 ha         1 K06       0.115500
     50 H17         -2.4890    10.0030    -2.7580 ha         1 K06       0.115000
     51 H18         -0.5010     8.9340    -1.7310 ha         1 K06       0.115500
     52 H19          1.0800     7.6600    -3.1310 ha         1 K06       0.117500
     53 H20         -3.8900     0.7360    -6.5010 ho         1 K06       0.437000
     54 H21         -5.6250     5.8440    -6.2920 hn         1 K06       0.396500
     55 H22         -5.5140     5.9230    -7.9060 hn         1 K06       0.396500
     56 H24         -3.0630     4.8030    -9.1370 ha         1 K06       0.114500
     57 H25         -0.7940     5.7090    -8.9410 ha         1 K06       0.123500
     58 H26         -3.3470     4.6140    -4.8670 ha         1 K06       0.114500
     59 H27          6.1450     8.5820    -5.9700 h1         1 K06       0.065200
     60 H28          4.7030     8.6400    -4.9670 h1         1 K06       0.065200
     61 H29          2.6160     8.4150    -5.0850 ha         1 K06       0.130000
     62 H30         -1.2860     8.5220    -6.5940 ha         1 K06       0.117500
@<TRIPOS>BOND
     1     1     2 1   
     2     1    34 1   
     3     1    35 1   
     4     1    36 1   
     5     2     3 1   
     6     2     5 1   
     7     2    20 1   
     8     3     4 1   
     9     3    37 1   
    10     3    38 1   
    11     4     5 1   
    12     4     6 1   
    13     4    21 1   
    14     5    39 1   
    15     5    40 1   
    16     6    22 ar  
    17     6    24 ar  
    18     7     8 ar  
    19     7    23 ar  
    20     7    25 1   
    21     8    24 ar  
    22     8    41 1   
    23     9    26 ar  
    24     9    27 1   
    25     9    30 ar  
    26    10    11 1   
    27    10    27 1   
    28    10    42 1   
    29    10    43 1   
    30    11    12 2   
    31    11    28 1   
    32    13    14 1   
    33    13    29 1   
    34    13    44 1   
    35    13    45 1   
    36    14    46 1   
    37    14    47 1   
    38    14    48 1   
    39    15    25 1   
    40    15    31 2   
    41    15    32 1   
    42    16    17 ar  
    43    16    33 ar  
    44    16    49 1   
    45    17    18 ar  
    46    17    50 1   
    47    18    19 ar  
    48    18    51 1   
    49    19    32 2   
    50    19    52 1   
    51    20    53 1   
    52    21    54 1   
    53    21    55 1   
    54    22    23 ar  
    55    22    56 1   
    56    23    57 1   
    57    24    58 1   
    58    25    26 ar  
    59    28    29 1   
    60    28    30 1   
    61    29    59 1   
    62    29    60 1   
    63    30    31 ar  
    64    31    61 1   
    65    32    33 1   
    66    33    62 1   
@<TRIPOS>SUBSTRUCTURE
     1 K06         1 TEMP              0 ****  ****    0 ROOT
