@<TRIPOS>MOLECULE
K06
   62    66     1     0     0
SMALL
No Charge or Current Charge


@<TRIPOS>ATOM
      1 C1          -5.7570     0.6710    -7.2360 c3         1 K06      -0.103100
      2 C2          -4.9620     1.9840    -7.1960 cy         1 K06       0.155000
      3 C4          -5.3050     3.0550    -8.2860 cy         1 K06      -0.081400
      4 C5          -5.0260     4.1740    -7.2120 cy         1 K06       0.193500
      5 C7          -5.4260     3.0670    -6.1640 cy         1 K06      -0.081400
      6 C8          -3.5970     4.7450    -7.1310 ca         1 K06      -0.083300
      7 C11         -0.9630     5.8640    -6.9820 cp         1 K06      -0.146500
      8 C12         -1.7140     5.5860    -5.8120 ca         1 K06      -0.076500
      9 C16          2.6100     6.1690    -7.6630 ca         1 K06       0.544300
     10 C18          4.7750     5.1910    -8.0250 c6         1 K06       0.078600
     11 C19          5.4550     6.4300    -7.4190 c          1 K06       0.540000
     12 O20          6.6180     6.7230    -7.6750 o          1 K06      -0.532000
     13 C23          4.8430     9.7650    -6.5490 c3         1 K06      -0.093400
     14 C24          5.3590     9.9230    -7.9940 c3         1 K06      -0.089100
     15 C27          0.9180     7.3560    -5.8550 cq         1 K06      -0.072000
     16 C30         -2.0560     9.4010    -4.5870 ca         1 K06      -0.111500
     17 C31         -1.7390     9.5540    -3.2290 ca         1 K06      -0.104000
     18 C32         -0.5560     8.9950    -2.7230 ca         1 K06      -0.111500
     19 C33          0.3090     8.2820    -3.5720 ca         1 K06      -0.095000
     20 O3          -3.5830     1.6600    -7.1210 oh         1 K06      -0.653000
     21 N6          -5.9330     5.3120    -7.2700 n8         1 K06      -0.983200
     22 C9          -2.8640     5.0250    -8.3040 ca         1 K06      -0.110000
     23 C10         -1.5680     5.5640    -8.2300 ca         1 K06      -0.076500
     24 C13         -3.0100     5.0470    -5.8850 ca         1 K06      -0.110000
     25 C14          0.4240     6.4400    -6.9090 cp         1 K06       0.428500
     26 N15          1.2990     5.9050    -7.7860 nb         1 K06      -0.664000
     27 O17          3.4530     5.5080    -8.5280 os         1 K06      -0.436300
     28 N21          4.6060     7.2270    -6.6130 n          1 K06      -0.210400
     29 C22          5.1860     8.4000    -5.9030 c3         1 K06       0.095000
     30 C25          3.1620     7.0600    -6.6960 ca         1 K06      -0.122000
     31 C26          2.2930     7.6220    -5.7380 ca         1 K06      -0.089000
     32 C28         -0.0030     8.1170    -4.9400 cq         1 K06      -0.038000
     33 C29         -1.1940     8.6890    -5.4380 ca         1 K06      -0.095000
     34 H1          -5.5870     0.0740    -6.3320 hc         1 K06       0.044367
     35 H2          -6.8350     0.8630    -7.3070 hc         1 K06       0.044367
     36 H3          -5.4720     0.0620    -8.1030 hc         1 K06       0.044367
     37 H4          -4.6650     3.0420    -9.1720 hc         1 K06       0.066200
     38 H5          -6.3450     3.0180    -8.6290 hc         1 K06       0.066200
     39 H6          -6.4990     3.0330    -5.9420 hc         1 K06       0.066200
     40 H7          -4.8930     3.0660    -5.2090 hc         1 K06       0.066200
     41 H8          -1.2860     5.7820    -4.8310 ha         1 K06       0.123500
     42 H9           4.6970     4.4360    -7.2310 h1         1 K06       0.090200
     43 H10          5.4050     4.8040    -8.8370 h1         1 K06       0.090200
     44 H11          5.2770    10.5610    -5.9310 hc         1 K06       0.046700
     45 H12          3.7580     9.9190    -6.5390 hc         1 K06       0.046700
     46 H13          5.1290    10.9260    -8.3740 hc         1 K06       0.039367
     47 H14          6.4460     9.7820    -8.0370 hc         1 K06       0.039367
     48 H15          4.8870     9.1910    -8.6610 hc         1 K06       0.039367
     49 H16         -2.9710     9.8370    -4.9830 ha         1 K06       0.115500
     50 H17         -2.4080    10.1050    -2.5710 ha         1 K06       0.115000
     51 H18         -0.3080     9.1100    -1.6700 ha         1 K06       0.115500
     52 H19          1.2120     7.8470    -3.1520 ha         1 K06       0.117500
     53 H20         -3.4420     1.1570    -6.2910 ho         1 K06       0.437000
     54 H21         -5.7600     5.9180    -6.4620 hn         1 K06       0.396500
     55 H22         -5.6720     5.9060    -8.0630 hn         1 K06       0.396500
     56 H24         -3.2950     4.8340    -9.2820 ha         1 K06       0.114500
     57 H25         -1.0300     5.7660    -9.1540 ha         1 K06       0.123500
     58 H26         -3.5550     4.8710    -4.9610 ha         1 K06       0.114500
     59 H27          6.2770     8.3030    -5.8480 h1         1 K06       0.065200
     60 H28          4.8340     8.3930    -4.8650 h1         1 K06       0.065200
     61 H29          2.6620     8.2900    -4.9660 ha         1 K06       0.130000
     62 H30         -1.4570     8.5930    -6.4890 ha         1 K06       0.117500
@<TRIPOS>BOND
     1     1     2 1   
     2     1    34 1   
     3     1    35 1   
     4     1    36 1   
     5     2     3 1   
     6     2     5 1   
     7     2    20 1   
     8     3     4 1   
     9     3    37 1   
    10     3    38 1   
    11     4     5 1   
    12     4     6 1   
    13     4    21 1   
    14     5    39 1   
    15     5    40 1   
    16     6    22 ar  
    17     6    24 ar  
    18     7     8 ar  
    19     7    23 ar  
    20     7    25 1   
    21     8    24 ar  
    22     8    41 1   
    23     9    26 ar  
    24     9    27 1   
    25     9    30 ar  
    26    10    11 1   
    27    10    27 1   
    28    10    42 1   
    29    10    43 1   
    30    11    12 2   
    31    11    28 1   
    32    13    14 1   
    33    13    29 1   
    34    13    44 1   
    35    13    45 1   
    36    14    46 1   
    37    14    47 1   
    38    14    48 1   
    39    15    25 1   
    40    15    31 2   
    41    15    32 1   
    42    16    17 ar  
    43    16    33 ar  
    44    16    49 1   
    45    17    18 ar  
    46    17    50 1   
    47    18    19 ar  
    48    18    51 1   
    49    19    32 2   
    50    19    52 1   
    51    20    53 1   
    52    21    54 1   
    53    21    55 1   
    54    22    23 ar  
    55    22    56 1   
    56    23    57 1   
    57    24    58 1   
    58    25    26 ar  
    59    28    29 1   
    60    28    30 1   
    61    29    59 1   
    62    29    60 1   
    63    30    31 ar  
    64    31    61 1   
    65    32    33 1   
    66    33    62 1   
@<TRIPOS>SUBSTRUCTURE
     1 K06         1 TEMP              0 ****  ****    0 ROOT
