@<TRIPOS>MOLECULE
K07
   29    30     1     0     0
SMALL
No Charge or Current Charge


@<TRIPOS>ATOM
      1 N1           1.7380     1.6770    -0.4730 nb         1 K07      -0.268000
      2 C4          -4.4680     0.0720    -0.7480 c5         1 K07       0.155600
      3 C5          -2.2550    -0.6600    -0.5100 c5         1 K07       0.158600
      4 C6           1.2870     0.6030     0.2080 ca         1 K07       0.414900
      5 C7           2.8870     1.5250    -1.1630 ca         1 K07       0.164900
      6 C8           3.1780    -0.6700    -0.5760 ca         1 K07       0.139900
      7 N            0.0820     0.7880     0.9290 nh         1 K07      -0.788300
      8 C            0.0190     0.4860     2.3780 c3         1 K07       0.216100
      9 O           -3.6260    -1.0960    -0.5870 os         1 K07      -0.461000
     10 C1          -1.0730     1.5000     0.3300 c3         1 K07       0.234800
     11 C2          -2.3630     0.6500     0.2980 c5         1 K07      -0.124700
     12 C3          -3.5560     1.3000    -0.4540 c5         1 K07      -0.110400
     13 C9           1.9920    -0.6260     0.1780 ca         1 K07      -0.066000
     14 N2           3.6320     0.4060    -1.2490 nb         1 K07      -0.201000
     15 Cl           1.4280    -2.0920     0.9940 cl         1 K07      -0.183000
     16 H2          -5.3030     0.0020    -0.0380 h1         1 K07       0.044700
     17 H3          -1.6410    -1.4240    -0.0140 h1         1 K07       0.050200
     18 H4          -1.8670    -0.4910    -1.5240 h1         1 K07       0.050200
     19 H5           3.2480     2.3960    -1.7080 h5         1 K07       0.050100
     20 H6           3.7690    -1.5820    -0.6500 h4         1 K07       0.034100
     21 H7          -0.4720     1.3020     2.9240 h1         1 K07       0.045367
     22 H8          -0.5400    -0.4420     2.5540 h1         1 K07       0.045367
     23 H9           1.0290     0.3670     2.7940 h1         1 K07       0.045367
     24 H10         -1.2700     2.4270     0.8860 h1         1 K07       0.067700
     25 H11         -0.8430     1.7960    -0.7030 h1         1 K07       0.067700
     26 H12         -2.6380     0.4320     1.3370 hc         1 K07       0.061700
     27 H13         -3.2370     1.7760    -1.3890 hc         1 K07       0.055700
     28 H14         -4.0660     2.0650     0.1430 hc         1 K07       0.055700
     29 H1          -4.8750     0.0980    -1.7680 h1         1 K07       0.044700
@<TRIPOS>BOND
     1     1     4 ar  
     2     1     5 ar  
     3     2     9 1   
     4     2    12 1   
     5     2    16 1   
     6     2    29 1   
     7     3     9 1   
     8     3    11 1   
     9     3    17 1   
    10     3    18 1   
    11     4     7 1   
    12     4    13 ar  
    13     5    14 ar  
    14     5    19 1   
    15     6    13 ar  
    16     6    14 ar  
    17     6    20 1   
    18     7     8 1   
    19     7    10 1   
    20     8    21 1   
    21     8    22 1   
    22     8    23 1   
    23    10    11 1   
    24    10    24 1   
    25    10    25 1   
    26    11    12 1   
    27    11    26 1   
    28    12    27 1   
    29    12    28 1   
    30    13    15 1   
@<TRIPOS>SUBSTRUCTURE
     1 K07         1 TEMP              0 ****  ****    0 ROOT
