@<TRIPOS>MOLECULE
K07
   29    30     1     0     0
SMALL
bcc


@<TRIPOS>ATOM
      1 N1           1.3860     1.3530    -0.8230 nb         1 K07      -0.794000
      2 C4          -4.3380     0.2020    -0.8470 c5         1 K07       0.132400
      3 C5          -2.1480    -0.5480    -0.6190 c5         1 K07       0.135400
      4 C6           1.1590     0.5250     0.2050 ca         1 K07       0.743200
      5 C7           2.4950     1.2350    -1.5200 ca         1 K07       0.690900
      6 C8           3.2400    -0.5200    -0.3570 ca         1 K07       0.468200
      7 N            0.0580     0.7400     0.9550 nh         1 K07      -0.788300
      8 C           -0.0540     0.3430     2.3460 c3         1 K07       0.216100
      9 O           -3.4510    -0.8930    -1.0520 os         1 K07      -0.414600
     10 C1          -1.0670     1.5030     0.4330 c3         1 K07       0.234800
     11 C2          -2.3150     0.6440     0.3150 c5         1 K07      -0.124700
     12 C3          -3.4900     1.3630    -0.3430 c5         1 K07      -0.110400
     13 C9           2.0980    -0.5160     0.4110 ca         1 K07      -0.288200
     14 N2           3.4740     0.3680    -1.3200 nb         1 K07      -0.727000
     15 CL           1.8280    -1.8660     1.4590 cl         1 K07      -0.091400
     16 H2          -5.0980    -0.0790    -0.1100 h1         1 K07       0.044700
     17 H3          -1.6910    -1.4140    -0.1350 h1         1 K07       0.050200
     18 H4          -1.5140    -0.2720    -1.4740 h1         1 K07       0.050200
     19 H5           2.6210     1.9340    -2.3410 h5         1 K07       0.050100
     20 H6           3.9850    -1.2930    -0.2020 h4         1 K07       0.034100
     21 H7          -0.6600     1.0900     2.8570 h1         1 K07       0.045367
     22 H8          -0.5290    -0.6280     2.4890 h1         1 K07       0.045367
     23 H9           0.9170     0.3330     2.8340 h1         1 K07       0.045367
     24 H10         -1.2570     2.3560     1.0910 h1         1 K07       0.067700
     25 H11         -0.8020     1.9060    -0.5420 h1         1 K07       0.067700
     26 H12         -2.6240     0.2890     1.3040 hc         1 K07       0.061700
     27 H13         -3.1350     1.9770    -1.1750 hc         1 K07       0.055700
     28 H14         -4.0370     2.0110     0.3420 hc         1 K07       0.055700
     29 H1          -4.8540     0.4420    -1.7810 h1         1 K07       0.044700
@<TRIPOS>BOND
     1     1     4 ar  
     2     1     5 ar  
     3     2     9 1   
     4     2    12 1   
     5     2    16 1   
     6     2    29 1   
     7     3     9 1   
     8     3    11 1   
     9     3    17 1   
    10     3    18 1   
    11     4     7 1   
    12     4    13 ar  
    13     5    14 ar  
    14     5    19 1   
    15     6    13 ar  
    16     6    14 ar  
    17     6    20 1   
    18     7     8 1   
    19     7    10 1   
    20     8    21 1   
    21     8    22 1   
    22     8    23 1   
    23    10    11 1   
    24    10    24 1   
    25    10    25 1   
    26    11    12 1   
    27    11    26 1   
    28    12    27 1   
    29    12    28 1   
    30    13    15 1   
@<TRIPOS>SUBSTRUCTURE
     1 K07         1 TEMP              0 ****  ****    0 ROOT
