@<TRIPOS>MOLECULE
K08
   51    54     1     0     0
SMALL
abcg2


@<TRIPOS>ATOM
      1 C01          1.3350     2.6380    -0.6660 c3         1 K08      -0.042900
      2 C02          1.0870     1.1730    -0.5560 cc         1 K08      -0.080200
      3 C03          2.0030     0.1780    -0.5660 cd         1 K08      -0.069400
      4 C04          1.3090    -1.1030    -0.4310 ca         1 K08      -0.065800
      5 C05         -0.0730    -0.8650    -0.3190 ca         1 K08      -0.061800
      6 C06         -0.2590     0.5970    -0.3800 cc         1 K08      -0.029200
      7 C07         -1.3690     1.3550    -0.3330 cf         1 K08      -0.096200
      8 C08         -2.7490     0.9560    -0.0540 ca         1 K08      -0.070800
      9 C09         -3.0870     0.1270     1.0150 ca         1 K08      -0.093500
     10 C10         -4.4120    -0.1980     1.2680 ca         1 K08      -0.110500
     11 C11         -5.4430     0.2900     0.4710 ca         1 K08      -0.063300
     12 C12         -5.1040     1.1370    -0.5850 ca         1 K08      -0.110500
     13 C13         -3.7860     1.4780    -0.8340 ca         1 K08      -0.093500
     14 C14         -6.8810    -0.0720     0.7510 c3         1 K08      -0.018400
     15 C15         -7.7030     1.1610     1.1270 c3         1 K08      -0.084600
     16 C16         -7.5120    -0.8100    -0.4290 c3         1 K08      -0.084600
     17 C17         -0.9520    -1.9340    -0.2670 ca         1 K08      -0.081000
     18 C18         -0.4450    -3.2320    -0.2870 ca         1 K08      -0.114000
     19 C19          0.9230    -3.4620    -0.3660 ca         1 K08      -0.106000
     20 C20          1.8130    -2.3940    -0.4460 ca         1 K08      -0.091000
     21 C21          3.4850     0.2890    -0.6680 c3         1 K08      -0.018200
     22 C22          4.1550     0.1020     0.7050 c3         1 K08      -0.111700
     23 C23          5.6330     0.1160     0.5990 cc         1 K08       0.396800
     24 N24          6.4320    -0.9170     0.4660 nd         1 K08      -0.388000
     25 N25          7.6680    -0.4280     0.3600 nd         1 K08      -0.043000
     26 N26          7.6670     0.8440     0.4210 nc         1 K08      -0.204800
     27 N27          6.4040     1.2050     0.5690 na         1 K08      -0.218700
     28 H1           1.0420     3.1620     0.2450 hc         1 K08       0.043033
     29 H2           2.3860     2.8560    -0.8470 hc         1 K08       0.043033
     30 H3           0.7630     3.0790    -1.4850 hc         1 K08       0.043033
     31 H4          -1.2400     2.4150    -0.5340 ha         1 K08       0.178000
     32 H5          -2.3120    -0.2520     1.6680 ha         1 K08       0.117500
     33 H6          -4.6460    -0.8400     2.1090 ha         1 K08       0.113500
     34 H7          -5.8790     1.5480    -1.2210 ha         1 K08       0.113500
     35 H8          -3.5550     2.1460    -1.6550 ha         1 K08       0.117500
     36 H9          -6.8860    -0.7510     1.6100 hc         1 K08       0.049700
     37 H10         -7.7530     1.8740     0.3020 hc         1 K08       0.035533
     38 H11         -8.7250     0.8780     1.3820 hc         1 K08       0.035533
     39 H12         -7.2750     1.6770     1.9880 hc         1 K08       0.035533
     40 H13         -7.5690    -0.1720    -1.3140 hc         1 K08       0.035533
     41 H14         -6.9400    -1.7000    -0.6960 hc         1 K08       0.035533
     42 H15         -8.5270    -1.1270    -0.1860 hc         1 K08       0.035533
     43 H16         -2.0220    -1.7870    -0.2150 ha         1 K08       0.123000
     44 H17         -1.1290    -4.0690    -0.2410 ha         1 K08       0.113000
     45 H18          1.2990    -4.4770    -0.3770 ha         1 K08       0.115000
     46 H19          2.8780    -2.5770    -0.5310 ha         1 K08       0.120000
     47 H20          3.8680    -0.4700    -1.3570 hc         1 K08       0.056700
     48 H21          3.7730     1.2550    -1.0850 hc         1 K08       0.056700
     49 H22          3.8240     0.8870     1.3870 hc         1 K08       0.075700
     50 H23          3.8580    -0.8510     1.1430 hc         1 K08       0.075700
     51 H24          6.1510     2.1800     0.6460 hn         1 K08       0.384000
@<TRIPOS>BOND
     1     1     2 1   
     2     1    28 1   
     3     1    29 1   
     4     1    30 1   
     5     2     3 2   
     6     2     6 1   
     7     3     4 1   
     8     3    21 1   
     9     4     5 ar  
    10     4    20 ar  
    11     5     6 1   
    12     5    17 ar  
    13     6     7 2   
    14     7     8 1   
    15     7    31 1   
    16     8     9 ar  
    17     8    13 ar  
    18     9    10 ar  
    19     9    32 1   
    20    10    11 ar  
    21    10    33 1   
    22    11    12 ar  
    23    11    14 1   
    24    12    13 ar  
    25    12    34 1   
    26    13    35 1   
    27    14    15 1   
    28    14    16 1   
    29    14    36 1   
    30    15    37 1   
    31    15    38 1   
    32    15    39 1   
    33    16    40 1   
    34    16    41 1   
    35    16    42 1   
    36    17    18 ar  
    37    17    43 1   
    38    18    19 ar  
    39    18    44 1   
    40    19    20 ar  
    41    19    45 1   
    42    20    46 1   
    43    21    22 1   
    44    21    47 1   
    45    21    48 1   
    46    22    23 1   
    47    22    49 1   
    48    22    50 1   
    49    23    24 2   
    50    23    27 1   
    51    24    25 1   
    52    25    26 2   
    53    26    27 1   
    54    27    51 1   
@<TRIPOS>SUBSTRUCTURE
     1 K08         1 TEMP              0 ****  ****    0 ROOT
