@<TRIPOS>MOLECULE
K08
   51    54     1     0     0
SMALL
No Charge or Current Charge


@<TRIPOS>ATOM
      1 C01          1.3540     2.4810    -0.9700 c3         1 K08      -0.042900
      2 C02          1.1140     0.9920    -0.8900 cc         1 K08      -0.080200
      3 C03          2.0470    -0.0180    -0.7070 cd         1 K08      -0.069400
      4 C04          1.3390    -1.2900    -0.6510 ca         1 K08      -0.065800
      5 C05         -0.0130    -1.0480    -0.8090 ca         1 K08      -0.061800
      6 C06         -0.2020     0.3910    -0.9480 cc         1 K08      -0.029200
      7 C07         -1.4080     1.0400    -1.0260 cf         1 K08      -0.096200
      8 C08         -2.7610     0.7580    -0.5040 ca         1 K08      -0.070800
      9 C09         -2.9810    -0.1700     0.5340 ca         1 K08      -0.093500
     10 C10         -4.2770    -0.3970     1.0280 ca         1 K08      -0.110500
     11 C11         -5.3770     0.3090     0.5050 ca         1 K08      -0.063300
     12 C12         -5.1540     1.2590    -0.5110 ca         1 K08      -0.110500
     13 C13         -3.8570     1.4860    -1.0030 ca         1 K08      -0.093500
     14 C14         -6.7850     0.0540     1.0500 c3         1 K08      -0.018400
     15 C15         -7.3650     1.3140     1.7300 c3         1 K08      -0.084600
     16 C16         -7.7270    -0.4880    -0.0470 c3         1 K08      -0.084600
     17 C17         -0.9260    -2.1140    -0.9050 ca         1 K08      -0.081000
     18 C18         -0.4400    -3.4300    -0.7570 ca         1 K08      -0.114000
     19 C19          0.9370    -3.6660    -0.5450 ca         1 K08      -0.106000
     20 C20          1.8460    -2.5890    -0.5020 ca         1 K08      -0.091000
     21 C21          3.5440     0.1440    -0.5830 c3         1 K08      -0.018200
     22 C22          3.9920     0.2750     0.8880 c3         1 K08      -0.111700
     23 C23          5.4800     0.4250     1.0380 cc         1 K08       0.396800
     24 N24          6.3570    -0.5420     1.2010 nd         1 K08      -0.388000
     25 N25          7.5910     0.0600     1.2840 nd         1 K08      -0.043000
     26 N26          7.5030     1.3590     1.1760 nc         1 K08      -0.204800
     27 N27          6.1770     1.5960     1.0210 na         1 K08      -0.218700
     28 H1           0.7010     3.0210    -0.2740 hc         1 K08       0.043033
     29 H2           2.3860     2.7440    -0.7130 hc         1 K08       0.043033
     30 H3           1.1550     2.8530    -1.9820 hc         1 K08       0.043033
     31 H4          -1.2960     2.0930    -1.2820 ha         1 K08       0.178000
     32 H5          -2.1460    -0.6990     0.9840 ha         1 K08       0.117500
     33 H6          -4.4210    -1.1210     1.8280 ha         1 K08       0.113500
     34 H7          -5.9850     1.8260    -0.9230 ha         1 K08       0.113500
     35 H8          -3.7070     2.2250    -1.7880 ha         1 K08       0.117500
     36 H9          -6.7280    -0.7210     1.8250 hc         1 K08       0.049700
     37 H10         -7.5030     2.1270     1.0070 hc         1 K08       0.035533
     38 H11         -8.3380     1.0940     2.1850 hc         1 K08       0.035533
     39 H12         -6.6930     1.6680     2.5200 hc         1 K08       0.035533
     40 H13         -7.8810     0.2530    -0.8400 hc         1 K08       0.035533
     41 H14         -7.3070    -1.3940    -0.5000 hc         1 K08       0.035533
     42 H15         -8.7060    -0.7440     0.3760 hc         1 K08       0.035533
     43 H16         -1.9790    -1.9410    -1.1080 ha         1 K08       0.123000
     44 H17         -1.1300    -4.2690    -0.8170 ha         1 K08       0.113000
     45 H18          1.3010    -4.6860    -0.4360 ha         1 K08       0.115000
     46 H19          2.9100    -2.7670    -0.3680 ha         1 K08       0.120000
     47 H20          4.0500    -0.7160    -1.0370 hc         1 K08       0.056700
     48 H21          3.8830     1.0200    -1.1490 hc         1 K08       0.056700
     49 H22          3.4890     1.1350     1.3440 hc         1 K08       0.075700
     50 H23          3.6590    -0.6090     1.4440 hc         1 K08       0.075700
     51 H24          5.7990     2.5300     0.9110 hn         1 K08       0.384000
@<TRIPOS>BOND
     1     1     2 1   
     2     1    28 1   
     3     1    29 1   
     4     1    30 1   
     5     2     3 2   
     6     2     6 1   
     7     3     4 1   
     8     3    21 1   
     9     4     5 ar  
    10     4    20 ar  
    11     5     6 1   
    12     5    17 ar  
    13     6     7 2   
    14     7     8 1   
    15     7    31 1   
    16     8     9 ar  
    17     8    13 ar  
    18     9    10 ar  
    19     9    32 1   
    20    10    11 ar  
    21    10    33 1   
    22    11    12 ar  
    23    11    14 1   
    24    12    13 ar  
    25    12    34 1   
    26    13    35 1   
    27    14    15 1   
    28    14    16 1   
    29    14    36 1   
    30    15    37 1   
    31    15    38 1   
    32    15    39 1   
    33    16    40 1   
    34    16    41 1   
    35    16    42 1   
    36    17    18 ar  
    37    17    43 1   
    38    18    19 ar  
    39    18    44 1   
    40    19    20 ar  
    41    19    45 1   
    42    20    46 1   
    43    21    22 1   
    44    21    47 1   
    45    21    48 1   
    46    22    23 1   
    47    22    49 1   
    48    22    50 1   
    49    23    24 2   
    50    23    27 1   
    51    24    25 1   
    52    25    26 2   
    53    26    27 1   
    54    27    51 1   
@<TRIPOS>SUBSTRUCTURE
     1 K08         1 TEMP              0 ****  ****    0 ROOT
