@<TRIPOS>MOLECULE
K09
   51    54     1     0     0
SMALL
bcc


@<TRIPOS>ATOM
      1 C01          1.3490     2.9260    -0.5000 c3         1 K09      -0.045900
      2 C02          1.0680     1.4690    -0.3750 cc         1 K09      -0.070200
      3 C03          1.9540     0.4500    -0.4510 cd         1 K09      -0.076400
      4 C04          1.2380    -0.8090    -0.2520 ca         1 K09      -0.037800
      5 C05         -0.1310    -0.5350    -0.0750 ca         1 K09      -0.078800
      6 C06         -0.2880     0.9260    -0.1710 cc         1 K09      -0.031200
      7 C07         -1.3770     1.7110    -0.0850 cf         1 K09      -0.040200
      8 C08         -2.7880     1.3250    -0.0140 ca         1 K09      -0.074800
      9 C09         -3.6390     1.9870     0.8720 ca         1 K09      -0.111000
     10 C10         -4.9830     1.6570     0.9450 ca         1 K09      -0.128500
     11 C11         -5.5330     0.6820     0.1170 ca         1 K09      -0.061300
     12 C12         -4.6880     0.0500    -0.7960 ca         1 K09      -0.128500
     13 C13         -3.3420     0.3640    -0.8630 ca         1 K09      -0.111000
     14 C14         -6.9970     0.3240     0.2010 c3         1 K09      -0.019400
     15 C15         -7.7140     0.5750    -1.1260 c3         1 K09      -0.085100
     16 C16         -7.1850    -1.1230     0.6580 c3         1 K09      -0.085100
     17 C17         -1.0030    -1.5710     0.2100 ca         1 K09      -0.074000
     18 C18         -0.5240    -2.8780     0.2790 ca         1 K09      -0.177000
     19 C19          0.8200    -3.1140     0.0620 ca         1 K09       0.138900
     20 C20          1.7300    -2.1030    -0.1980 ca         1 K09      -0.153000
     21 F21          1.2680    -4.3800     0.1140 f          1 K09      -0.142900
     22 C22          3.4290     0.5180    -0.6540 c3         1 K09      -0.018200
     23 C23          4.1910     0.3250     0.6690 c3         1 K09      -0.107700
     24 C24          5.6560     0.2690     0.4500 cc         1 K09       0.393800
     25 N25          6.3340    -0.6980    -0.1250 nd         1 K09      -0.388000
     26 N26          7.6100    -0.3110    -0.1330 nd         1 K09      -0.041000
     27 N27          7.7460     0.8360     0.4040 nc         1 K09      -0.204800
     28 N28          6.5360     1.2170     0.7730 na         1 K09      -0.165400
     29 H1           1.0740     3.4620     0.4110 hc         1 K09       0.045033
     30 H2           2.4040     3.1180    -0.6880 hc         1 K09       0.045033
     31 H3           0.7810     3.3740    -1.3170 hc         1 K09       0.045033
     32 H5          -1.2050     2.7830    -0.0670 ha         1 K09       0.129000
     33 H7          -3.2400     2.7600     1.5190 ha         1 K09       0.135500
     34 H8          -5.6200     2.1730     1.6550 ha         1 K09       0.133000
     35 H9          -5.0860    -0.6960    -1.4750 ha         1 K09       0.133000
     36 H10         -2.7160    -0.1280    -1.5970 ha         1 K09       0.135500
     37 H11         -7.4510     0.9730     0.9550 hc         1 K09       0.050700
     38 H12         -7.3130    -0.0570    -1.9210 hc         1 K09       0.036200
     39 H13         -8.7780     0.3520    -1.0330 hc         1 K09       0.036200
     40 H14         -7.6130     1.6130    -1.4430 hc         1 K09       0.036200
     41 H15         -6.7070    -1.3040     1.6220 hc         1 K09       0.036200
     42 H16         -8.2460    -1.3560     0.7620 hc         1 K09       0.036200
     43 H17         -6.7620    -1.8260    -0.0620 hc         1 K09       0.036200
     44 H18         -2.0550    -1.3970     0.3870 ha         1 K09       0.145000
     45 H19         -1.1940    -3.6990     0.4970 ha         1 K09       0.150000
     46 H20          2.7790    -2.3300    -0.3420 ha         1 K09       0.159000
     47 H21          3.7400    -0.2540    -1.3630 hc         1 K09       0.062200
     48 H22          3.7150     1.4740    -1.0950 hc         1 K09       0.062200
     49 H23          3.9510     1.1360     1.3570 hc         1 K09       0.070200
     50 H24          3.8800    -0.6040     1.1500 hc         1 K09       0.070200
     51 H25          6.3880     2.1040     1.2340 hn         1 K09       0.333700
@<TRIPOS>BOND
     1     1     2 1   
     2     1    29 1   
     3     1    30 1   
     4     1    31 1   
     5     2     3 2   
     6     2     6 1   
     7     3     4 1   
     8     3    22 1   
     9     4     5 ar  
    10     4    20 ar  
    11     5     6 1   
    12     5    17 ar  
    13     6     7 2   
    14     7     8 1   
    15     7    32 1   
    16     8     9 ar  
    17     8    13 ar  
    18     9    10 ar  
    19     9    33 1   
    20    10    11 ar  
    21    10    34 1   
    22    11    12 ar  
    23    11    14 1   
    24    12    13 ar  
    25    12    35 1   
    26    13    36 1   
    27    14    15 1   
    28    14    16 1   
    29    14    37 1   
    30    15    38 1   
    31    15    39 1   
    32    15    40 1   
    33    16    41 1   
    34    16    42 1   
    35    16    43 1   
    36    17    18 ar  
    37    17    44 1   
    38    18    19 ar  
    39    18    45 1   
    40    19    20 ar  
    41    19    21 1   
    42    20    46 1   
    43    22    23 1   
    44    22    47 1   
    45    22    48 1   
    46    23    24 1   
    47    23    49 1   
    48    23    50 1   
    49    24    25 2   
    50    24    28 1   
    51    25    26 1   
    52    26    27 2   
    53    27    28 1   
    54    28    51 1   
@<TRIPOS>SUBSTRUCTURE
     1 K09         1 TEMP              0 ****  ****    0 ROOT
