@<TRIPOS>MOLECULE
K09
   51    54     1     0     0
SMALL
No Charge or Current Charge


@<TRIPOS>ATOM
      1 C01          1.3480     2.8230    -0.0130 c3         1 K09      -0.045900
      2 C02          1.0730     1.3400     0.0510 cc         1 K09      -0.070200
      3 C03          1.9330     0.2940    -0.2510 cd         1 K09      -0.076400
      4 C04          1.2170    -0.9590    -0.0530 ca         1 K09      -0.037800
      5 C05         -0.0710    -0.6700     0.3610 ca         1 K09      -0.078800
      6 C06         -0.2110     0.7800     0.4190 cc         1 K09      -0.031200
      7 C07         -1.3710     1.4650     0.6820 cf         1 K09      -0.090200
      8 C08         -2.8040     1.1750     0.4670 ca         1 K09      -0.074800
      9 C09         -3.7700     1.9670     1.1150 ca         1 K09      -0.093000
     10 C10         -5.1420     1.7320     0.9150 ca         1 K09      -0.110500
     11 C11         -5.5730     0.7110     0.0460 ca         1 K09      -0.061300
     12 C12         -4.6060    -0.0620    -0.6280 ca         1 K09      -0.110500
     13 C13         -3.2360     0.1740    -0.4250 ca         1 K09      -0.093000
     14 C14         -7.0680     0.4620    -0.1670 c3         1 K09      -0.019400
     15 C15         -7.4840     0.7400    -1.6290 c3         1 K09      -0.085100
     16 C16         -7.4770    -0.9580     0.2820 c3         1 K09      -0.085100
     17 C17         -0.9560    -1.6980     0.7330 ca         1 K09      -0.056000
     18 C18         -0.5220    -3.0340     0.6020 ca         1 K09      -0.159000
     19 C19          0.7790    -3.3190     0.1360 ca         1 K09       0.174000
     20 C20          1.6710    -2.2790    -0.1860 ca         1 K09      -0.135000
     21 F21          1.1830    -4.6040     0.0250 f          1 K09      -0.178000
     22 C22          3.3670     0.4050    -0.7110 c3         1 K09      -0.018200
     23 C23          4.3590     0.3750     0.4710 c3         1 K09      -0.107700
     24 C24          5.7950     0.4710     0.0370 cc         1 K09       0.393800
     25 N25          6.5950    -0.5290    -0.2670 nd         1 K09      -0.388000
     26 N26          7.8030     0.0300    -0.6130 nd         1 K09      -0.041000
     27 N27          7.7730     1.3340    -0.5340 nc         1 K09      -0.204800
     28 N28          6.5120     1.6190    -0.1260 na         1 K09      -0.215700
     29 H1           1.0650     3.3130     0.9260 hc         1 K09       0.045033
     30 H2           2.4100     3.0360    -0.1800 hc         1 K09       0.045033
     31 H3           0.7800     3.2890    -0.8260 hc         1 K09       0.045033
     32 H5          -1.2010     2.5330     0.8130 ha         1 K09       0.179000
     33 H7          -3.4590     2.7610     1.7900 ha         1 K09       0.117500
     34 H8          -5.8690     2.3490     1.4370 ha         1 K09       0.115000
     35 H9          -4.9140    -0.8420    -1.3200 ha         1 K09       0.115000
     36 H10         -2.5130    -0.4090    -0.9900 ha         1 K09       0.117500
     37 H11         -7.6350     1.1630     0.4580 hc         1 K09       0.050700
     38 H12         -6.9970     0.0420    -2.3200 hc         1 K09       0.036200
     39 H13         -8.5700     0.6370    -1.7480 hc         1 K09       0.036200
     40 H14         -7.2070     1.7610    -1.9190 hc         1 K09       0.036200
     41 H15         -7.1910    -1.1270     1.3270 hc         1 K09       0.036200
     42 H16         -8.5620    -1.0920     0.2010 hc         1 K09       0.036200
     43 H17         -6.9910    -1.7250    -0.3340 hc         1 K09       0.036200
     44 H18         -1.9420    -1.4800     1.1340 ha         1 K09       0.127000
     45 H19         -1.1870    -3.8500     0.8740 ha         1 K09       0.132000
     46 H20          2.6830    -2.5010    -0.5130 ha         1 K09       0.141000
     47 H21          3.6030    -0.4180    -1.3980 hc         1 K09       0.062200
     48 H22          3.5150     1.3240    -1.2910 hc         1 K09       0.062200
     49 H23          4.1270     1.1970     1.1580 hc         1 K09       0.070200
     50 H24          4.2130    -0.5520     1.0380 hc         1 K09       0.070200
     51 H25          6.1890     2.5670     0.0260 hn         1 K09       0.384000
@<TRIPOS>BOND
     1     1     2 1   
     2     1    29 1   
     3     1    30 1   
     4     1    31 1   
     5     2     3 2   
     6     2     6 1   
     7     3     4 1   
     8     3    22 1   
     9     4     5 ar  
    10     4    20 ar  
    11     5     6 1   
    12     5    17 ar  
    13     6     7 2   
    14     7     8 1   
    15     7    32 1   
    16     8     9 ar  
    17     8    13 ar  
    18     9    10 ar  
    19     9    33 1   
    20    10    11 ar  
    21    10    34 1   
    22    11    12 ar  
    23    11    14 1   
    24    12    13 ar  
    25    12    35 1   
    26    13    36 1   
    27    14    15 1   
    28    14    16 1   
    29    14    37 1   
    30    15    38 1   
    31    15    39 1   
    32    15    40 1   
    33    16    41 1   
    34    16    42 1   
    35    16    43 1   
    36    17    18 ar  
    37    17    44 1   
    38    18    19 ar  
    39    18    45 1   
    40    19    20 ar  
    41    19    21 1   
    42    20    46 1   
    43    22    23 1   
    44    22    47 1   
    45    22    48 1   
    46    23    24 1   
    47    23    49 1   
    48    23    50 1   
    49    24    25 2   
    50    24    28 1   
    51    25    26 1   
    52    26    27 2   
    53    27    28 1   
    54    28    51 1   
@<TRIPOS>SUBSTRUCTURE
     1 K09         1 TEMP              0 ****  ****    0 ROOT
