@<TRIPOS>MOLECULE
K0A
   28    29     1     0     0
SMALL
abcg2


@<TRIPOS>ATOM
      1 N1          -1.8700    -0.1320     0.2640 n          1 K0A      -0.398800
      2 C4          -3.2070    -0.6580     0.5330 c5         1 K0A       0.106000
      3 C5          -4.1300     0.4840     0.1270 c5         1 K0A      -0.096900
      4 C6          -3.3490     1.1790    -0.9830 c5         1 K0A      -0.096900
      5 C7          -1.9180     1.1380    -0.4630 c5         1 K0A       0.106000
      6 C8           1.6150    -0.9790    -0.2050 cc         1 K0A      -0.150300
      7 N            0.7890     1.0320     0.6010 nd         1 K0A      -0.631000
      8 O           -0.8790    -2.0270     0.9560 o          1 K0A      -0.610100
      9 C1           2.0150     1.3670     0.3840 cc         1 K0A       0.438700
     10 C2           0.5480    -0.2770     0.2770 cd         1 K0A       0.218500
     11 C3          -0.7900    -0.8820     0.5220 c          1 K0A       0.539600
     12 S            2.9750     0.0760    -0.2580 ss         1 K0A      -0.058400
     13 H1          -3.3950    -1.5520    -0.0680 h1         1 K0A       0.055200
     14 H2          -3.3150    -0.9380     1.5820 h1         1 K0A       0.055200
     15 H3          -5.1090     0.1260    -0.1910 hc         1 K0A       0.052950
     16 H4          -4.2790     1.1690     0.9650 hc         1 K0A       0.052950
     17 H5          -3.4280     0.6140    -1.9140 hc         1 K0A       0.052950
     18 H6          -3.6840     2.1970    -1.1790 hc         1 K0A       0.052950
     19 H7          -1.7220     1.9770     0.2080 h1         1 K0A       0.055200
     20 H8          -1.1780     1.1670    -1.2610 h1         1 K0A       0.055200
     21 H9           3.4290     2.6590     1.3400 hc         1 K0A       0.058700
     22 H10          2.9550     3.1750    -0.2730 hc         1 K0A       0.058700
     23 H11          1.8260     3.3570     1.0750 hc         1 K0A       0.058700
     24 H12          2.4200    -2.5060    -1.4720 hc         1 K0A       0.058700
     25 H13          2.1000    -3.0260     0.1790 hc         1 K0A       0.058700
     26 H14          0.7650    -2.7970    -0.9420 hc         1 K0A       0.058700
     27 C9           1.7300    -2.4010    -0.6360 c3         1 K0A      -0.022800
     28 C            2.5910     2.7140     0.6460 c3         1 K0A      -0.128400
@<TRIPOS>BOND
     1     1     2 1   
     2     1     5 1   
     3     1    11 1   
     4     2     3 1   
     5     2    13 1   
     6     2    14 1   
     7     3     4 1   
     8     3    15 1   
     9     3    16 1   
    10     4     5 1   
    11     4    17 1   
    12     4    18 1   
    13     5    19 1   
    14     5    20 1   
    15     6    10 2   
    16     6    12 1   
    17     6    27 1   
    18     7     9 2   
    19     7    10 1   
    20     8    11 2   
    21     9    12 1   
    22     9    28 1   
    23    10    11 1   
    24    21    28 1   
    25    22    28 1   
    26    23    28 1   
    27    24    27 1   
    28    25    27 1   
    29    26    27 1   
@<TRIPOS>SUBSTRUCTURE
     1 K0A         1 TEMP              0 ****  ****    0 ROOT
