@<TRIPOS>MOLECULE
K0A
   28    29     1     0     0
SMALL
No Charge or Current Charge


@<TRIPOS>ATOM
      1 N1          -1.9790    -0.1940    -0.0320 n          1 K0A      -0.398800
      2 C4          -3.3240    -0.8100     0.0440 c5         1 K0A       0.106000
      3 C5          -4.2180     0.4160     0.3500 c5         1 K0A      -0.096900
      4 C6          -3.5480     1.5050    -0.5190 c5         1 K0A      -0.096900
      5 C7          -2.0450     1.2760    -0.2140 c5         1 K0A       0.106000
      6 C8           1.7590    -1.0310     0.0250 cc         1 K0A      -0.150300
      7 N            0.8210     1.0940     0.0910 nd         1 K0A      -0.631000
      8 O           -0.9230    -2.2080     0.0350 o          1 K0A      -0.610100
      9 C1           2.1150     1.3540     0.1100 cc         1 K0A       0.438700
     10 C2           0.5750    -0.2880     0.0360 cd         1 K0A       0.218500
     11 C3          -0.7940    -0.9870     0.0100 c          1 K0A       0.539600
     12 S            3.1750    -0.0150     0.0710 ss         1 K0A      -0.058400
     13 H1          -3.5900    -1.2760    -0.9140 h1         1 K0A       0.055200
     14 H2          -3.3930    -1.5710     0.8330 h1         1 K0A       0.055200
     15 H3          -5.2680     0.2460     0.0880 hc         1 K0A       0.052950
     16 H4          -4.1810     0.6790     1.4140 hc         1 K0A       0.052950
     17 H5          -3.7630     1.3470    -1.5830 hc         1 K0A       0.052950
     18 H6          -3.8780     2.5180    -0.2650 hc         1 K0A       0.052950
     19 H7          -1.7420     1.7950     0.7050 h1         1 K0A       0.055200
     20 H8          -1.4220     1.6270    -1.0470 h1         1 K0A       0.055200
     21 H9           3.1450     2.9300     1.1380 hc         1 K0A       0.058700
     22 H10          3.4190     2.8970    -0.6160 hc         1 K0A       0.058700
     23 H11          1.8790     3.4930     0.0300 hc         1 K0A       0.058700
     24 H12          3.0270    -2.7850    -0.0530 hc         1 K0A       0.058700
     25 H13          1.5290    -3.0150     0.8560 hc         1 K0A       0.058700
     26 H14          1.4980    -2.9590    -0.9210 hc         1 K0A       0.058700
     27 C9           1.9620    -2.5270    -0.0260 c3         1 K0A      -0.022800
     28 C            2.6690     2.7460     0.1680 c3         1 K0A      -0.128400
@<TRIPOS>BOND
     1     1     2 1   
     2     1     5 1   
     3     1    11 1   
     4     2     3 1   
     5     2    13 1   
     6     2    14 1   
     7     3     4 1   
     8     3    15 1   
     9     3    16 1   
    10     4     5 1   
    11     4    17 1   
    12     4    18 1   
    13     5    19 1   
    14     5    20 1   
    15     6    10 2   
    16     6    12 1   
    17     6    27 1   
    18     7     9 2   
    19     7    10 1   
    20     8    11 2   
    21     9    12 1   
    22     9    28 1   
    23    10    11 1   
    24    21    28 1   
    25    22    28 1   
    26    23    28 1   
    27    24    27 1   
    28    25    27 1   
    29    26    27 1   
@<TRIPOS>SUBSTRUCTURE
     1 K0A         1 TEMP              0 ****  ****    0 ROOT
