@<TRIPOS>MOLECULE
K0B
   60    66     1     0     0
SMALL
No Charge or Current Charge


@<TRIPOS>ATOM
      1 C4          -6.2130    -0.7890     2.5260 ca         1 K0B       0.099000
      2 C5          -5.1350    -0.1180     3.1470 ca         1 K0B      -0.109000
      3 C6          -4.0560     0.3540     2.3700 ca         1 K0B      -0.103000
      4 N1          -3.1820     0.4950     0.0410 na         1 K0B      -0.293600
      5 C7          -4.0980     0.1340     0.9870 ca         1 K0B      -0.070200
      6 C8          -0.5470     0.0370    -1.9510 ca         1 K0B       0.484900
      7 N2          -1.6960    -0.4050    -2.5870 nu         1 K0B      -0.919100
      8 C9           0.5900    -0.7840    -1.8610 ca         1 K0B      -0.137600
      9 C10          1.6840    -0.2860    -1.2020 ca         1 K0B       0.180500
     10 C11          0.5660     1.6620    -0.7740 ca         1 K0B       0.446900
     11 C12          1.5890     3.3690     0.8240 c6         1 K0B       0.185800
     12 N3           1.7000     0.9360    -0.6430 nb         1 K0B      -0.281000
     13 C13          1.7470     4.9130     0.9450 c6         1 K0B       0.140100
     14 C14         -0.4250     5.3140     0.0100 c6         1 K0B       0.140100
     15 C15         -0.7060     3.7920    -0.1620 c6         1 K0B       0.185800
     16 N4          -0.5600     1.2640    -1.4060 nb         1 K0B      -0.389000
     17 C3          -6.2200    -0.9930     1.1270 ca         1 K0B       0.195000
     18 F           -7.2410    -1.2360     3.2840 f          1 K0B      -0.166000
     19 C2          -5.1320    -0.5140     0.3680 ca         1 K0B       0.044400
     20 N           -4.9240    -0.5980    -1.0040 nc         1 K0B      -0.556100
     21 C1          -3.7340     0.0210    -1.1570 cd         1 K0B       0.386800
     22 C           -3.0650     0.1910    -2.5210 c3         1 K0B       0.216500
     23 N5           0.5500     2.9570    -0.1910 nh         1 K0B      -0.770300
     24 O            0.4640     5.5540     1.1230 os         1 K0B      -0.443000
     25 N6           2.5990    -1.2930    -1.2820 na         1 K0B      -0.193100
     26 C16          2.0490    -2.3800    -1.9580 cc         1 K0B       0.406700
     27 N7           0.7890    -2.0900    -2.3460 nd         1 K0B      -0.536100
     28 C17          3.8470    -1.3270    -0.6610 ca         1 K0B       0.016800
     29 C26          4.2190    -2.4290     0.1350 ca         1 K0B      -0.111000
     30 C25          5.4800    -2.4610     0.7610 ca         1 K0B      -0.028000
     31 C20          6.3780    -1.3850     0.5910 ca         1 K0B      -0.038000
     32 C19          6.0080    -0.2840    -0.2030 ca         1 K0B      -0.087000
     33 C18          4.7480    -0.2560    -0.8250 ca         1 K0B      -0.094000
     34 C24          5.8490    -3.5620     1.5570 ca         1 K0B      -0.098000
     35 C23          7.1090    -3.5910     2.1800 ca         1 K0B      -0.101000
     36 C22          8.0030    -2.5200     2.0100 ca         1 K0B      -0.103000
     37 C21          7.6390    -1.4180     1.2170 ca         1 K0B      -0.096000
     38 H1          -5.1390     0.0330     4.2240 ha         1 K0B       0.135000
     39 H2          -3.2190     0.8730     2.8330 ha         1 K0B       0.127000
     40 H3          -2.2890     0.9590     0.1520 hn         1 K0B       0.388000
     41 H4          -1.6100    -1.3620    -2.9380 hn         1 K0B       0.528000
     42 H6           1.3220     2.9650     1.8110 h1         1 K0B       0.062950
     43 H7           2.3930     5.1540     1.8000 h1         1 K0B       0.055950
     44 H8           2.2250     5.3100     0.0370 h1         1 K0B       0.055950
     45 H9           0.0300     5.7140    -0.9080 h1         1 K0B       0.055950
     46 H10         -1.3690     5.8490     0.1810 h1         1 K0B       0.055950
     47 H11         -1.3550     3.4600     0.6620 h1         1 K0B       0.062950
     48 H12         -1.2800     3.6750    -1.0930 h1         1 K0B       0.062950
     49 H14         -3.0280     1.2630    -2.7590 h1         1 K0B       0.082700
     50 H15         -3.7120    -0.2790    -3.2750 h1         1 K0B       0.082700
     51 H16          2.5850    -3.3060    -2.1270 h5         1 K0B       0.072800
     52 H17          3.5280    -3.2560     0.2760 ha         1 K0B       0.124000
     53 H18          6.6940     0.5490    -0.3400 ha         1 K0B       0.119000
     54 H19          4.4750     0.5980    -1.4410 ha         1 K0B       0.138000
     55 H20          5.1630    -4.3950     1.6940 ha         1 K0B       0.116000
     56 H21          7.3920    -4.4430     2.7950 ha         1 K0B       0.116000
     57 H22          8.9780    -2.5430     2.4930 ha         1 K0B       0.116000
     58 H23          8.3360    -0.5930     1.0910 ha         1 K0B       0.116000
     59 F1          -7.2510    -1.6360     0.5280 f          1 K0B      -0.143000
     60 H5           2.5790     2.9640     0.5670 h1         1 K0B       0.062950
@<TRIPOS>BOND
     1     1     2 ar  
     2     1    17 ar  
     3     1    18 1   
     4     2     3 ar  
     5     2    38 1   
     6     3     5 ar  
     7     3    39 1   
     8     4     5 1   
     9     4    21 1   
    10     4    40 1   
    11     5    19 ar  
    12     6     7 1   
    13     6     8 ar  
    14     6    16 ar  
    15     7    22 1   
    16     7    41 1   
    17     8     9 ar  
    18     8    27 1   
    19     9    12 ar  
    20     9    25 1   
    21    10    12 ar  
    22    10    16 ar  
    23    10    23 1   
    24    11    13 1   
    25    11    23 1   
    26    11    42 1   
    27    11    60 1   
    28    13    24 1   
    29    13    43 1   
    30    13    44 1   
    31    14    15 1   
    32    14    24 1   
    33    14    45 1   
    34    14    46 1   
    35    15    23 1   
    36    15    47 1   
    37    15    48 1   
    38    17    19 ar  
    39    17    59 1   
    40    19    20 1   
    41    20    21 2   
    42    21    22 1   
    43    22    49 1   
    44    22    50 1   
    45    25    26 1   
    46    25    28 1   
    47    26    27 2   
    48    26    51 1   
    49    28    29 ar  
    50    28    33 ar  
    51    29    30 ar  
    52    29    52 1   
    53    30    31 ar  
    54    30    34 ar  
    55    31    32 ar  
    56    31    37 ar  
    57    32    33 ar  
    58    32    53 1   
    59    33    54 1   
    60    34    35 ar  
    61    34    55 1   
    62    35    36 ar  
    63    35    56 1   
    64    36    37 ar  
    65    36    57 1   
    66    37    58 1   
@<TRIPOS>SUBSTRUCTURE
     1 K0B         1 TEMP              0 ****  ****    0 ROOT
