@<TRIPOS>MOLECULE
K0B
   60    66     1     0     0
SMALL
abcg2


@<TRIPOS>ATOM
      1 C4          -6.6740    -0.1150     2.1700 ca         1 K0B       0.099000
      2 C5          -5.6210     0.4500     2.8890 ca         1 K0B      -0.109000
      3 C6          -4.4180     0.7390     2.2710 ca         1 K0B      -0.103000
      4 N1          -3.3140     0.5830     0.0010 na         1 K0B      -0.293600
      5 C7          -4.3190     0.4390     0.9180 ca         1 K0B      -0.070200
      6 C8          -0.5930    -0.2510    -1.6730 ca         1 K0B       0.484900
      7 N2          -1.7130    -0.6730    -2.2750 nu         1 K0B      -0.919100
      8 C9           0.5850    -1.0210    -1.6750 ca         1 K0B      -0.137600
      9 C10          1.6590    -0.4660    -1.0020 ca         1 K0B       0.180500
     10 C11          0.5420     1.3640    -0.4590 ca         1 K0B       0.446900
     11 C12          1.5670     3.0760     0.9540 c6         1 K0B       0.185800
     12 N3           1.6970     0.7040    -0.3830 nb         1 K0B      -0.281000
     13 C13          1.7120     4.5790     0.8180 c6         1 K0B       0.140100
     14 C14         -0.4940     4.8220     0.1600 c6         1 K0B       0.140100
     15 C15         -0.7490     3.3290     0.2600 c6         1 K0B       0.185800
     16 N4          -0.5870     0.9220    -1.0460 nb         1 K0B      -0.389000
     17 C3          -6.5690    -0.4100     0.8290 ca         1 K0B       0.195000
     18 F           -7.8280    -0.3840     2.8010 f          1 K0B      -0.166000
     19 C2          -5.3700    -0.1310     0.1810 ca         1 K0B       0.044400
     20 N           -4.9990    -0.3260    -1.1230 nc         1 K0B      -0.556100
     21 C1          -3.7690     0.1110    -1.1840 cd         1 K0B       0.386800
     22 C           -2.9120     0.1210    -2.4100 c3         1 K0B       0.216500
     23 N5           0.4960     2.6040     0.0960 nh         1 K0B      -0.770300
     24 O            0.4970     5.2500     1.0640 os         1 K0B      -0.443000
     25 N6           2.6600    -1.3960    -1.1100 na         1 K0B      -0.193100
     26 C16          2.1350    -2.4420    -1.8380 cc         1 K0B       0.406700
     27 N7           0.9030    -2.2520    -2.1920 nd         1 K0B      -0.536100
     28 C17          3.9550    -1.3340    -0.5540 ca         1 K0B       0.016800
     29 C26          4.4830    -2.4370     0.0590 ca         1 K0B      -0.111000
     30 C25          5.7900    -2.3980     0.5960 ca         1 K0B      -0.028000
     31 C20          6.5360    -1.1950     0.5150 ca         1 K0B      -0.038000
     32 C19          5.9520    -0.0730    -0.1190 ca         1 K0B      -0.087000
     33 C18          4.6960    -0.1340    -0.6500 ca         1 K0B      -0.094000
     34 C24          6.3660    -3.5240     1.2290 ca         1 K0B      -0.098000
     35 C23          7.6260    -3.4540     1.7580 ca         1 K0B      -0.101000
     36 C22          8.3680    -2.2560     1.6780 ca         1 K0B      -0.103000
     37 C21          7.8350    -1.1530     1.0700 ca         1 K0B      -0.096000
     38 H1          -5.7630     0.6600     3.9410 ha         1 K0B       0.135000
     39 H2          -3.6000     1.1760     2.8260 ha         1 K0B       0.127000
     40 H3          -2.3760     0.9400     0.1360 hn         1 K0B       0.388000
     41 H4          -1.7010    -1.5840    -2.7040 hn         1 K0B       0.528000
     42 H6           1.3580     2.8110     1.9980 h1         1 K0B       0.062950
     43 H7           2.4430     4.9430     1.5410 h1         1 K0B       0.055950
     44 H8           2.0840     4.8170    -0.1890 h1         1 K0B       0.055950
     45 H9          -0.2040     5.0680    -0.8720 h1         1 K0B       0.055950
     46 H10         -1.4110     5.3650     0.3920 h1         1 K0B       0.055950
     47 H11         -1.2000     3.0920     1.2340 h1         1 K0B       0.062950
     48 H12         -1.4560     3.0470    -0.5160 h1         1 K0B       0.062950
     49 H14         -2.6480     1.1500    -2.6630 h1         1 K0B       0.082700
     50 H15         -3.4930    -0.2830    -3.2350 h1         1 K0B       0.082700
     51 H16          2.7350    -3.3060    -2.0830 h5         1 K0B       0.072800
     52 H17          3.9030    -3.3480     0.1500 ha         1 K0B       0.124000
     53 H18          6.5200     0.8470    -0.1880 ha         1 K0B       0.119000
     54 H19          4.2680     0.7270    -1.1430 ha         1 K0B       0.138000
     55 H20          5.7960    -4.4430     1.2890 ha         1 K0B       0.116000
     56 H21          8.0590    -4.3200     2.2410 ha         1 K0B       0.116000
     57 H22          9.3630    -2.2140     2.1030 ha         1 K0B       0.116000
     58 H23          8.4040    -0.2320     1.0110 ha         1 K0B       0.116000
     59 F1          -7.5920    -0.9520     0.1670 f          1 K0B      -0.143000
     60 H5           2.5020     2.5990     0.6720 h1         1 K0B       0.062950
@<TRIPOS>BOND
     1     1     2 ar  
     2     1    17 ar  
     3     1    18 1   
     4     2     3 ar  
     5     2    38 1   
     6     3     5 ar  
     7     3    39 1   
     8     4     5 1   
     9     4    21 1   
    10     4    40 1   
    11     5    19 ar  
    12     6     7 1   
    13     6     8 ar  
    14     6    16 ar  
    15     7    22 1   
    16     7    41 1   
    17     8     9 ar  
    18     8    27 1   
    19     9    12 ar  
    20     9    25 1   
    21    10    12 ar  
    22    10    16 ar  
    23    10    23 1   
    24    11    13 1   
    25    11    23 1   
    26    11    42 1   
    27    11    60 1   
    28    13    24 1   
    29    13    43 1   
    30    13    44 1   
    31    14    15 1   
    32    14    24 1   
    33    14    45 1   
    34    14    46 1   
    35    15    23 1   
    36    15    47 1   
    37    15    48 1   
    38    17    19 ar  
    39    17    59 1   
    40    19    20 1   
    41    20    21 2   
    42    21    22 1   
    43    22    49 1   
    44    22    50 1   
    45    25    26 1   
    46    25    28 1   
    47    26    27 2   
    48    26    51 1   
    49    28    29 ar  
    50    28    33 ar  
    51    29    30 ar  
    52    29    52 1   
    53    30    31 ar  
    54    30    34 ar  
    55    31    32 ar  
    56    31    37 ar  
    57    32    33 ar  
    58    32    53 1   
    59    33    54 1   
    60    34    35 ar  
    61    34    55 1   
    62    35    36 ar  
    63    35    56 1   
    64    36    37 ar  
    65    36    57 1   
    66    37    58 1   
@<TRIPOS>SUBSTRUCTURE
     1 K0B         1 TEMP              0 ****  ****    0 ROOT
