@<TRIPOS>MOLECULE
K0C
   43    46     1     0     0
SMALL
No Charge or Current Charge


@<TRIPOS>ATOM
      1 C1          94.0320   -12.6070     9.3250 ca         1 K0C      -0.078200
      2 C2          93.5250   -12.9710     8.0640 ca         1 K0C      -0.067000
      3 C3          95.3030   -12.9300     9.7240 ca         1 K0C       0.064400
      4 N4          93.4220   -11.9140    10.3390 na         1 K0C      -0.289600
      5 C5          94.3690   -13.6990     7.1780 ca         1 K0C       0.291000
      6 C6          92.2200   -12.6370     7.6590 ca         1 K0C      -0.065000
      7 N7          95.5800   -12.4680    11.0000 nc         1 K0C      -0.528100
      8 C8          96.1550   -13.6460     8.8720 ca         1 K0C      -0.034000
      9 C9          94.4220   -11.8720    11.3140 cd         1 K0C       0.388700
     10 C10         95.6780   -14.0270     7.6000 ca         1 K0C      -0.112000
     11 N11         93.9470   -14.0820     5.9490 nb         1 K0C      -0.659000
     12 C12         91.8010   -13.0430     6.3820 ca         1 K0C      -0.165000
     13 S13         94.1540   -11.0690    12.8680 ss         1 K0C      -0.186200
     14 C14         92.6900   -13.7590     5.5650 ca         1 K0C       0.350900
     15 C15         92.4310   -10.3930    12.7550 c3         1 K0C      -0.015700
     16 C16         92.0350    -9.6540    14.0300 ca         1 K0C       0.343300
     17 C17         92.3670    -8.2930    14.2530 ca         1 K0C      -0.113300
     18 N18         91.3400   -10.3960    14.9240 nb         1 K0C      -0.660000
     19 C19         91.9310    -7.7010    15.4600 ca         1 K0C       0.131100
     20 C20         93.1710    -7.4910    13.2230 c3         1 K0C      -0.053800
     21 C21         90.9510    -9.8150    16.0790 ca         1 K0C       0.340900
     22 C22         91.2210    -8.4740    16.3960 ca         1 K0C      -0.126300
     23 O23         92.1960    -6.3800    15.7380 os         1 K0C      -0.360100
     24 C24         90.7450    -7.8810    17.7190 c3         1 K0C      -0.037800
     25 C25         91.3550    -5.3630    15.1690 c3         1 K0C       0.150900
     26 H1          92.4880   -11.5320    10.3840 hn         1 K0C       0.360000
     27 H2          91.5460   -12.0820     8.3070 ha         1 K0C       0.110000
     28 H4          97.1630   -13.9020     9.1880 ha         1 K0C       0.135000
     29 H5          96.3290   -14.5820     6.9310 ha         1 K0C       0.135000
     30 H6          90.8020   -12.8090     6.0250 ha         1 K0C       0.124000
     31 H7          92.3880   -14.0840     4.5700 h4         1 K0C       0.020100
     32 H8          92.3600    -9.7150    11.8970 h1         1 K0C       0.077200
     33 H9          91.7360   -11.2260    12.5880 h1         1 K0C       0.077200
     34 H10         92.5300    -7.1620    12.3960 hc         1 K0C       0.055033
     35 H11         93.6330    -6.5980    13.6590 hc         1 K0C       0.055033
     36 H12         93.9910    -8.0810    12.7980 hc         1 K0C       0.055033
     37 H13         90.3980   -10.4500    16.7710 h4         1 K0C       0.023100
     38 H14         89.9800    -7.1140    17.5520 hc         1 K0C       0.048700
     39 H15         90.3100    -8.6460    18.3730 hc         1 K0C       0.048700
     40 H16         91.5740    -7.4160    18.2640 hc         1 K0C       0.048700
     41 H17         91.6930    -4.3680    15.4830 h1         1 K0C       0.039033
     42 H18         91.3760    -5.4030    14.0730 h1         1 K0C       0.039033
     43 H19         90.3160    -5.4920    15.4990 h1         1 K0C       0.039033
@<TRIPOS>BOND
     1     1     2 ar  
     2     1     3 ar  
     3     1     4 1   
     4     2     5 ar  
     5     2     6 ar  
     6     3     7 1   
     7     3     8 ar  
     8     4     9 1   
     9     4    26 1   
    10     5    10 ar  
    11     5    11 ar  
    12     6    12 ar  
    13     6    27 1   
    14     7     9 2   
    15     8    10 ar  
    16     8    28 1   
    17     9    13 1   
    18    10    29 1   
    19    11    14 ar  
    20    12    14 ar  
    21    12    30 1   
    22    13    15 1   
    23    14    31 1   
    24    15    16 1   
    25    15    32 1   
    26    15    33 1   
    27    16    17 ar  
    28    16    18 ar  
    29    17    19 ar  
    30    17    20 1   
    31    18    21 ar  
    32    19    22 ar  
    33    19    23 1   
    34    20    34 1   
    35    20    35 1   
    36    20    36 1   
    37    21    22 ar  
    38    21    37 1   
    39    22    24 1   
    40    23    25 1   
    41    24    38 1   
    42    24    39 1   
    43    24    40 1   
    44    25    41 1   
    45    25    42 1   
    46    25    43 1   
@<TRIPOS>SUBSTRUCTURE
     1 K0C         1 TEMP              0 ****  ****    0 ROOT
