@<TRIPOS>MOLECULE
K0C
   43    46     1     0     0
SMALL
bcc


@<TRIPOS>ATOM
      1 C1          93.7950   -12.6110     9.3680 ca         1 K0C      -0.078200
      2 C2          93.4090   -13.0340     8.0790 ca         1 K0C      -0.132300
      3 C3          95.1250   -12.4950     9.7570 ca         1 K0C       0.064400
      4 N4          93.0720   -12.2380    10.4670 na         1 K0C      -0.239300
      5 C5          94.4670   -13.3500     7.1850 ca         1 K0C       0.421600
      6 C6          92.0860   -13.1700     7.6200 ca         1 K0C      -0.083000
      7 N7          95.2070   -12.0460    11.0480 nc         1 K0C      -0.528100
      8 C8          96.1620   -12.8110     8.8530 ca         1 K0C      -0.052000
      9 C9          93.9670   -11.9090    11.4350 cd         1 K0C       0.388700
     10 C10         95.8270   -13.2290     7.5980 ca         1 K0C      -0.195300
     11 N11         94.2260   -13.7720     5.9250 nb         1 K0C      -0.659000
     12 C12         91.8720   -13.5980     6.3380 ca         1 K0C      -0.248300
     13 S13         93.5340   -11.4360    13.0550 ss         1 K0C      -0.138300
     14 C14         92.9840   -13.8880     5.5270 ca         1 K0C       0.416200
     15 C15         92.0090   -10.4560    12.7760 c3         1 K0C      -0.063600
     16 C16         91.7470    -9.6760    14.0310 ca         1 K0C       0.408600
     17 C17         92.3480    -8.4300    14.2390 ca         1 K0C      -0.178600
     18 N18         90.9400   -10.2530    14.9120 nb         1 K0C      -0.660000
     19 C19         92.0410    -7.7780    15.4330 ca         1 K0C       0.131100
     20 C20         93.2830    -7.8340    13.2290 c3         1 K0C      -0.053800
     21 C21         90.6840    -9.6180    16.0460 ca         1 K0C       0.406200
     22 C22         91.1960    -8.3710    16.3730 ca         1 K0C      -0.191600
     23 O23         92.5850    -6.5690    15.7200 os         1 K0C      -0.336900
     24 C24         90.8730    -7.7070    17.6750 c3         1 K0C      -0.037800
     25 C25         91.9000    -5.4600    15.1470 c3         1 K0C       0.127700
     26 H1          92.0670   -12.2360    10.5570 hn         1 K0C       0.309700
     27 H2          91.2520   -12.9400     8.2720 ha         1 K0C       0.128000
     28 H4          97.1970   -12.7190     9.1560 ha         1 K0C       0.153000
     29 H5          96.5930   -13.4800     6.8770 ha         1 K0C       0.153000
     30 H6          90.8710   -13.7160     5.9450 ha         1 K0C       0.142000
     31 H7          92.8290   -14.2290     4.5090 h4         1 K0C       0.020100
     32 H8          92.1630    -9.8100    11.9130 h1         1 K0C       0.077200
     33 H9          91.1740   -11.1270    12.5830 h1         1 K0C       0.077200
     34 H10         92.7400    -7.4670    12.3550 hc         1 K0C       0.055033
     35 H11         93.8460    -7.0020    13.6430 hc         1 K0C       0.055033
     36 H12         94.0030    -8.5730    12.8760 hc         1 K0C       0.055033
     37 H13         90.0250   -10.1240    16.7440 h4         1 K0C       0.023100
     38 H14         90.3650    -6.7530    17.5290 hc         1 K0C       0.048700
     39 H15         90.2220    -8.3390    18.2770 hc         1 K0C       0.048700
     40 H16         91.7750    -7.5060    18.2550 hc         1 K0C       0.048700
     41 H17         92.4370    -4.5630    15.4490 h1         1 K0C       0.039033
     42 H18         91.8840    -5.5120    14.0560 h1         1 K0C       0.039033
     43 H19         90.8710    -5.3950    15.5100 h1         1 K0C       0.039033
@<TRIPOS>BOND
     1     1     2 ar  
     2     1     3 ar  
     3     1     4 1   
     4     2     5 ar  
     5     2     6 ar  
     6     3     7 1   
     7     3     8 ar  
     8     4     9 1   
     9     4    26 1   
    10     5    10 ar  
    11     5    11 ar  
    12     6    12 ar  
    13     6    27 1   
    14     7     9 2   
    15     8    10 ar  
    16     8    28 1   
    17     9    13 1   
    18    10    29 1   
    19    11    14 ar  
    20    12    14 ar  
    21    12    30 1   
    22    13    15 1   
    23    14    31 1   
    24    15    16 1   
    25    15    32 1   
    26    15    33 1   
    27    16    17 ar  
    28    16    18 ar  
    29    17    19 ar  
    30    17    20 1   
    31    18    21 ar  
    32    19    22 ar  
    33    19    23 1   
    34    20    34 1   
    35    20    35 1   
    36    20    36 1   
    37    21    22 ar  
    38    21    37 1   
    39    22    24 1   
    40    23    25 1   
    41    24    38 1   
    42    24    39 1   
    43    24    40 1   
    44    25    41 1   
    45    25    42 1   
    46    25    43 1   
@<TRIPOS>SUBSTRUCTURE
     1 K0C         1 TEMP              0 ****  ****    0 ROOT
