@<TRIPOS>MOLECULE
K0E
   54    59     1     0     0
SMALL
No Charge or Current Charge


@<TRIPOS>ATOM
      1 C4          -5.9120     0.0560    -0.1200 ca         1 K0E      -0.097200
      2 C5          -7.3030     0.2270    -0.0600 ca         1 K0E       0.122000
      3 C6          -3.7020     0.2520    -0.1170 cc         1 K0E       0.403800
      4 N1          -4.8970     0.9520     0.0510 na         1 K0E      -0.298600
      5 C7          -2.3200     0.8930    -0.0060 c3         1 K0E       0.222500
      6 C8           0.1610     0.2070    -0.2350 ca         1 K0E       0.485900
      7 N2          -1.1980    -0.0510    -0.2610 nu         1 K0E      -0.909100
      8 C9           1.8930     1.6830     0.0600 ca         1 K0E       0.450900
      9 C10          2.4250    -0.4860    -0.4370 ca         1 K0E       0.180500
     10 C11          1.0940    -0.8150    -0.4810 ca         1 K0E      -0.136600
     11 C12          2.1220    -2.6740    -0.8990 cc         1 K0E       0.399700
     12 N3           0.5600     1.4600     0.0370 nb         1 K0E      -0.365000
     13 C13          3.7600     3.4190     0.1550 c6         1 K0E       0.188300
     14 C14          4.1460     4.6990     0.9530 c6         1 K0E       0.139600
     15 C15          1.8610     5.3980     1.1400 c6         1 K0E       0.139600
     16 N4           2.8560     0.7570    -0.1650 nb         1 K0E      -0.290000
     17 C           -8.1160    -0.9060    -0.2850 ca         1 K0E       0.152000
     18 C1          -7.5260    -2.1620    -0.5600 ca         1 K0E      -0.148000
     19 C2          -6.1190    -2.2920    -0.6120 ca         1 K0E      -0.033000
     20 C3          -5.3320    -1.1510    -0.3850 ca         1 K0E       0.083400
     21 N           -3.9440    -1.0530    -0.3890 nd         1 K0E      -0.578100
     22 N5           3.0600    -1.6590    -0.7130 na         1 K0E      -0.199100
     23 N6           0.8750    -2.1750    -0.7710 nd         1 K0E      -0.526100
     24 N7           2.3220     3.0060     0.3510 nh         1 K0E      -0.769300
     25 O            3.1950     5.7610     0.7220 os         1 K0E      -0.446000
     26 C16          1.3450     4.1570     0.3530 c6         1 K0E       0.188300
     27 C17          4.4350    -1.8820    -0.6830 ca         1 K0E       0.047800
     28 F           -7.8410     1.4400     0.2050 f          1 K0E      -0.159000
     29 F1          -9.4640    -0.7980    -0.2390 f          1 K0E      -0.160000
     30 C18          5.3080    -1.0340    -1.3950 ca         1 K0E      -0.115000
     31 C19          6.6960    -1.2550    -1.3680 ca         1 K0E      -0.074000
     32 C20          7.2200    -2.3280    -0.6270 ca         1 K0E      -0.157000
     33 C21          6.3540    -3.1730     0.0830 ca         1 K0E       0.186000
     34 C22          4.9680    -2.9560     0.0580 ca         1 K0E      -0.173000
     35 F2           6.8590    -4.2020     0.7970 f          1 K0E      -0.174000
     36 H1          -4.9840     1.9390     0.2610 hn         1 K0E       0.371000
     37 H2          -2.2720     1.7270    -0.7190 h1         1 K0E       0.066700
     38 H3          -2.2230     1.3200     1.0020 h1         1 K0E       0.066700
     39 H4          -1.4410    -1.0240    -0.4670 hn         1 K0E       0.549000
     40 H5           2.3940    -3.7010    -1.1130 h5         1 K0E       0.070800
     41 H7           4.4480     2.6220     0.4740 h1         1 K0E       0.063200
     42 H8           4.1780     4.4710     2.0280 h1         1 K0E       0.053950
     43 H9           5.1460     5.0390     0.6490 h1         1 K0E       0.053950
     44 H10          1.8680     5.1780     2.2170 h1         1 K0E       0.053950
     45 H11          1.1860     6.2500     0.9730 h1         1 K0E       0.053950
     46 H12         -8.1590    -3.0290    -0.7330 ha         1 K0E       0.139000
     47 H13         -5.6530    -3.2520    -0.8230 ha         1 K0E       0.141000
     48 H15          0.3880     3.8630     0.8090 h1         1 K0E       0.063200
     49 H16          1.1300     4.4620    -0.6820 h1         1 K0E       0.063200
     50 H17          4.9090    -0.2040    -1.9740 ha         1 K0E       0.144000
     51 H18          7.3630    -0.5960    -1.9210 ha         1 K0E       0.122000
     52 H19          8.2930    -2.5040    -0.6010 ha         1 K0E       0.136000
     53 H20          4.3170    -3.6180     0.6220 ha         1 K0E       0.141000
     54 H6           3.9520     3.6000    -0.9130 h1         1 K0E       0.063200
@<TRIPOS>BOND
     1     1     2 ar  
     2     1     4 1   
     3     1    20 ar  
     4     2    17 ar  
     5     2    28 1   
     6     3     4 1   
     7     3     5 1   
     8     3    21 2   
     9     4    36 1   
    10     5     7 1   
    11     5    37 1   
    12     5    38 1   
    13     6     7 1   
    14     6    10 ar  
    15     6    12 ar  
    16     7    39 1   
    17     8    12 ar  
    18     8    16 ar  
    19     8    24 1   
    20     9    10 ar  
    21     9    16 ar  
    22     9    22 1   
    23    10    23 1   
    24    11    22 1   
    25    11    23 2   
    26    11    40 1   
    27    13    14 1   
    28    13    24 1   
    29    13    41 1   
    30    13    54 1   
    31    14    25 1   
    32    14    42 1   
    33    14    43 1   
    34    15    25 1   
    35    15    26 1   
    36    15    44 1   
    37    15    45 1   
    38    17    18 ar  
    39    17    29 1   
    40    18    19 ar  
    41    18    46 1   
    42    19    20 ar  
    43    19    47 1   
    44    20    21 1   
    45    22    27 1   
    46    24    26 1   
    47    26    48 1   
    48    26    49 1   
    49    27    30 ar  
    50    27    34 ar  
    51    30    31 ar  
    52    30    50 1   
    53    31    32 ar  
    54    31    51 1   
    55    32    33 ar  
    56    32    52 1   
    57    33    34 ar  
    58    33    35 1   
    59    34    53 1   
@<TRIPOS>SUBSTRUCTURE
     1 K0E         1 TEMP              0 ****  ****    0 ROOT
