@<TRIPOS>MOLECULE
K0E
   54    59     1     0     0
SMALL
abcg2


@<TRIPOS>ATOM
      1 C4          -5.7420     0.2320    -0.0940 ca         1 K0E      -0.097200
      2 C5          -7.1060     0.4220     0.0340 ca         1 K0E       0.122000
      3 C6          -3.5610     0.3170    -0.2160 cc         1 K0E       0.403800
      4 N1          -4.6690     1.0720    -0.0040 na         1 K0E      -0.298600
      5 C7          -2.1950     0.9120    -0.1940 c3         1 K0E       0.222500
      6 C8           0.0960     0.1040    -0.2970 ca         1 K0E       0.485900
      7 N2          -1.2190    -0.1330    -0.3290 nu         1 K0E      -0.909100
      8 C9           1.8410     1.5990    -0.0540 ca         1 K0E       0.450900
      9 C10          2.3690    -0.5200    -0.4060 ca         1 K0E       0.180500
     10 C11          1.0460    -0.9230    -0.4610 ca         1 K0E      -0.136600
     11 C12          2.1720    -2.6850    -0.7430 cc         1 K0E       0.399700
     12 N3           0.5220     1.3450    -0.1020 nb         1 K0E      -0.365000
     13 C13          3.5820     3.3160     0.0880 c6         1 K0E       0.188300
     14 C14          3.8480     4.4240     1.0900 c6         1 K0E       0.139600
     15 C15          1.6160     5.0540     1.1170 c6         1 K0E       0.139600
     16 N4           2.8230     0.7090    -0.2070 nb         1 K0E      -0.290000
     17 C           -7.9170    -0.6820    -0.1190 ca         1 K0E       0.152000
     18 C1          -7.4000    -1.9480    -0.3920 ca         1 K0E      -0.148000
     19 C2          -6.0370    -2.1390    -0.5180 ca         1 K0E      -0.033000
     20 C3          -5.2010    -1.0360    -0.3660 ca         1 K0E       0.083400
     21 N           -3.8310    -0.9360    -0.4350 nd         1 K0E      -0.578100
     22 N5           3.0950    -1.6710    -0.5870 na         1 K0E      -0.199100
     23 N6           0.9460    -2.2750    -0.6760 nd         1 K0E      -0.526100
     24 N7           2.2000     2.8880     0.1890 nh         1 K0E      -0.769300
     25 O            2.9440     5.4960     0.9440 os         1 K0E      -0.446000
     26 C16          1.2430     3.9740     0.1190 c6         1 K0E       0.188300
     27 C17          4.4950    -1.8150    -0.5980 ca         1 K0E       0.047800
     28 F           -7.6170     1.6270     0.2980 f          1 K0E      -0.159000
     29 F1          -9.2420    -0.5240     0.0030 f          1 K0E      -0.160000
     30 C18          5.2940    -0.8690    -1.2310 ca         1 K0E      -0.115000
     31 C19          6.6700    -1.0410    -1.2380 ca         1 K0E      -0.074000
     32 C20          7.2590    -2.1450    -0.6370 ca         1 K0E      -0.157000
     33 C21          6.4340    -3.0640    -0.0210 ca         1 K0E       0.186000
     34 C22          5.0620    -2.9210     0.0250 ca         1 K0E      -0.173000
     35 F2           6.9820    -4.1330     0.5740 f          1 K0E      -0.174000
     36 H1          -4.6900     2.0630     0.1800 hn         1 K0E       0.371000
     37 H2          -2.1070     1.6490    -1.0000 h1         1 K0E       0.066700
     38 H3          -2.0550     1.4640     0.7400 h1         1 K0E       0.066700
     39 H4          -1.5480    -1.0700    -0.5090 hn         1 K0E       0.549000
     40 H5           2.4870    -3.7030    -0.9220 h5         1 K0E       0.070800
     41 H7           4.2450     2.4790     0.2910 h1         1 K0E       0.063200
     42 H8           3.7940     4.0120     2.1080 h1         1 K0E       0.053950
     43 H9           4.8530     4.8200     0.9400 h1         1 K0E       0.053950
     44 H10          1.4670     4.6730     2.1370 h1         1 K0E       0.053950
     45 H11          0.9620     5.9180     0.9820 h1         1 K0E       0.053950
     46 H12         -8.0880    -2.7750    -0.5030 ha         1 K0E       0.139000
     47 H13         -5.6340    -3.1200    -0.7300 ha         1 K0E       0.141000
     48 H15          0.2460     3.6040     0.3430 h1         1 K0E       0.063200
     49 H16          1.2210     4.3950    -0.8950 h1         1 K0E       0.063200
     50 H17          4.8510    -0.0110    -1.7140 ha         1 K0E       0.144000
     51 H18          7.2940    -0.3070    -1.7300 ha         1 K0E       0.122000
     52 H19          8.3320    -2.2860    -0.6490 ha         1 K0E       0.136000
     53 H20          4.4550    -3.6490     0.5470 ha         1 K0E       0.141000
     54 H6           3.7980     3.6690    -0.9290 h1         1 K0E       0.063200
@<TRIPOS>BOND
     1     1     2 ar  
     2     1     4 1   
     3     1    20 ar  
     4     2    17 ar  
     5     2    28 1   
     6     3     4 1   
     7     3     5 1   
     8     3    21 2   
     9     4    36 1   
    10     5     7 1   
    11     5    37 1   
    12     5    38 1   
    13     6     7 1   
    14     6    10 ar  
    15     6    12 ar  
    16     7    39 1   
    17     8    12 ar  
    18     8    16 ar  
    19     8    24 1   
    20     9    10 ar  
    21     9    16 ar  
    22     9    22 1   
    23    10    23 1   
    24    11    22 1   
    25    11    23 2   
    26    11    40 1   
    27    13    14 1   
    28    13    24 1   
    29    13    41 1   
    30    13    54 1   
    31    14    25 1   
    32    14    42 1   
    33    14    43 1   
    34    15    25 1   
    35    15    26 1   
    36    15    44 1   
    37    15    45 1   
    38    17    18 ar  
    39    17    29 1   
    40    18    19 ar  
    41    18    46 1   
    42    19    20 ar  
    43    19    47 1   
    44    20    21 1   
    45    22    27 1   
    46    24    26 1   
    47    26    48 1   
    48    26    49 1   
    49    27    30 ar  
    50    27    34 ar  
    51    30    31 ar  
    52    30    50 1   
    53    31    32 ar  
    54    31    51 1   
    55    32    33 ar  
    56    32    52 1   
    57    33    34 ar  
    58    33    35 1   
    59    34    53 1   
@<TRIPOS>SUBSTRUCTURE
     1 K0E         1 TEMP              0 ****  ****    0 ROOT
