@<TRIPOS>MOLECULE
K0F
   64    69     1     0     0
SMALL
bcc


@<TRIPOS>ATOM
      1 C4           1.3760   -19.2080     4.1570 c3         1 K0F      -0.032100
      2 C2           0.0030   -21.1700     4.9440 c3         1 K0F      -0.076400
      3 N1          -2.0020   -25.1780     4.7260 na         1 K0F       0.042900
      4 C6           2.7430   -17.2400     3.4140 ca         1 K0F      -0.252300
      5 C5           3.6870   -16.2590     3.6600 ca         1 K0F       0.408700
      6 C8           3.0400   -17.9710     5.6470 ca         1 K0F      -0.252300
      7 C1          -0.2620   -22.1350     6.1060 c3         1 K0F      -0.049100
      8 C3           1.0420   -20.1230     5.3250 c3         1 K0F      -0.074400
      9 N2           4.3030   -16.1060     4.8290 nb         1 K0F      -0.653000
     10 C7           2.3960   -18.1350     4.4260 ca         1 K0F      -0.042300
     11 C9           3.9740   -16.9540     5.7940 ca         1 K0F       0.408700
     12 O8           3.3020   -25.4550     7.5210 os         1 K0F      -0.305900
     13 O9           4.0160   -26.7290     5.7630 os         1 K0F      -0.298900
     14 C16         -7.1860   -20.4990     6.2610 c3         1 K0F       0.113700
     15 C17         -6.4900   -23.8280     3.4500 c3         1 K0F       0.119700
     16 C18         -5.4250   -22.0000     5.7190 ca         1 K0F       0.149100
     17 C19         -4.4340   -21.1280     6.2140 ca         1 K0F      -0.133000
     18 C20         -5.0400   -23.2270     5.2050 ca         1 K0F       0.096100
     19 C21         -3.1060   -21.4660     6.2140 ca         1 K0F      -0.093000
     20 C22         -2.6790   -22.7150     5.7290 ca         1 K0F      -0.010000
     21 C23         -3.6730   -23.5810     5.2100 ca         1 K0F      -0.081000
     22 C24         -3.2590   -24.7990     4.6680 ca         1 K0F       0.029700
     23 C25         -1.0120   -24.4200     5.3270 ca         1 K0F       0.014700
     24 C26         -1.3190   -23.1420     5.7450 ca         1 K0F      -0.016300
     25 C27         -1.6140   -26.4400     4.0640 c6         1 K0F       0.006300
     26 C28         -0.2960   -26.2360     3.3480 c6         1 K0F      -0.051100
     27 C29          0.7230   -25.9040     4.3950 ca         1 K0F      -0.063300
     28 C30          0.3080   -25.0660     5.4310 ca         1 K0F      -0.090000
     29 C31          1.1120   -24.8920     6.5740 ca         1 K0F      -0.084000
     30 C32          1.9820   -26.5090     4.4130 ca         1 K0F      -0.108000
     31 C33          2.7790   -26.2650     5.5040 ca         1 K0F       0.103100
     32 C34          2.3430   -25.4880     6.5680 ca         1 K0F       0.062100
     33 C35          4.3090   -26.3680     7.1090 c5         1 K0F       0.323200
     34 H7           1.7360   -19.8110     3.3160 hc         1 K0F       0.052700
     35 H8           0.4620   -18.7260     3.7960 hc         1 K0F       0.052700
     36 H3           0.3550   -21.7450     4.0830 hc         1 K0F       0.046700
     37 H4          -0.9200   -20.6750     4.6290 hc         1 K0F       0.046700
     38 H10          2.2810   -17.3070     2.4370 ha         1 K0F       0.136500
     39 H9           3.9590   -15.5630     2.8740 h4         1 K0F       0.023600
     40 H29          2.8330   -18.6190     6.4880 ha         1 K0F       0.136500
     41 H2           0.6810   -22.6110     6.3510 hc         1 K0F       0.072700
     42 H1          -0.5530   -21.5810     7.0000 hc         1 K0F       0.072700
     43 H6           1.9470   -20.6270     5.6760 hc         1 K0F       0.049700
     44 H5           0.6660   -19.5350     6.1680 hc         1 K0F       0.049700
     45 H30          4.4800   -16.8250     6.7450 h4         1 K0F       0.023600
     46 H12         -8.2680   -20.5090     6.1680 h1         1 K0F       0.060033
     47 H11         -6.9220   -20.4000     7.3170 h1         1 K0F       0.060033
     48 H13         -6.7920   -19.6420     5.7100 h1         1 K0F       0.060033
     49 H15         -7.1210   -24.6730     3.1870 h1         1 K0F       0.051700
     50 H14         -7.0960   -22.9220     3.4600 h1         1 K0F       0.051700
     51 H16         -5.7020   -23.7260     2.7010 h1         1 K0F       0.051700
     52 H17         -4.7140   -20.1630     6.6160 ha         1 K0F       0.164000
     53 H18         -2.3970   -20.7570     6.6160 ha         1 K0F       0.164000
     54 H19         -3.9480   -25.4700     4.1760 h4         1 K0F       0.201000
     55 H21         -1.5240   -27.2140     4.8280 h1         1 K0F       0.094200
     56 H22         -2.4140   -26.7110     3.3810 h1         1 K0F       0.094200
     57 H23         -0.0320   -27.1550     2.8260 hc         1 K0F       0.089200
     58 H24         -0.3950   -25.4500     2.5930 hc         1 K0F       0.089200
     59 H25          0.7680   -24.3400     7.4370 ha         1 K0F       0.165000
     60 H26          2.2960   -27.1640     3.6100 ha         1 K0F       0.171000
     61 H27          5.2870   -25.8880     7.1560 h2         1 K0F       0.085700
     62 H28          4.2870   -27.2610     7.7420 h2         1 K0F       0.085700
     63 O6          -6.7320   -21.7290     5.7200 os         1 K0F      -0.289900
     64 O7          -5.9400   -24.1160     4.7380 os         1 K0F      -0.323900
@<TRIPOS>BOND
     1     1     8 1   
     2     1    10 1   
     3     1    34 1   
     4     1    35 1   
     5     2     7 1   
     6     2     8 1   
     7     2    36 1   
     8     2    37 1   
     9     3    22 1   
    10     3    23 2   
    11     3    25 1   
    12     4     5 ar  
    13     4    10 ar  
    14     4    38 1   
    15     5     9 ar  
    16     5    39 1   
    17     6    10 ar  
    18     6    11 ar  
    19     6    40 1   
    20     7    24 1   
    21     7    41 1   
    22     7    42 1   
    23     8    43 1   
    24     8    44 1   
    25     9    11 ar  
    26    11    45 1   
    27    12    32 1   
    28    12    33 1   
    29    13    31 1   
    30    13    33 1   
    31    14    46 1   
    32    14    47 1   
    33    14    48 1   
    34    14    63 1   
    35    15    49 1   
    36    15    50 1   
    37    15    51 1   
    38    15    64 1   
    39    16    17 ar  
    40    16    18 ar  
    41    16    63 1   
    42    17    19 ar  
    43    17    52 1   
    44    18    21 ar  
    45    18    64 1   
    46    19    20 ar  
    47    19    53 1   
    48    20    21 ar  
    49    20    24 ar  
    50    21    22 ar  
    51    22    54 1   
    52    23    24 ar  
    53    23    28 1   
    54    25    26 1   
    55    25    55 1   
    56    25    56 1   
    57    26    27 1   
    58    26    57 1   
    59    26    58 1   
    60    27    28 ar  
    61    27    30 ar  
    62    28    29 ar  
    63    29    32 ar  
    64    29    59 1   
    65    30    31 ar  
    66    30    60 1   
    67    31    32 ar  
    68    33    61 1   
    69    33    62 1   
@<TRIPOS>SUBSTRUCTURE
     1 K0F         1 TEMP              0 ****  ****    0 ROOT
