@<TRIPOS>MOLECULE
K0F
   64    69     1     0     0
SMALL
No Charge or Current Charge


@<TRIPOS>ATOM
      1 C4           1.1770   -18.8190     4.1130 c3         1 K0F      -0.032100
      2 C2           0.0100   -21.0140     4.7910 c3         1 K0F      -0.076400
      3 N1          -1.8410   -25.1800     4.2100 na         1 K0F       0.064300
      4 C6           3.5780   -17.9720     3.9580 ca         1 K0F      -0.169000
      5 C5           4.5640   -17.0330     4.3070 ca         1 K0F       0.343400
      6 C8           2.0220   -16.7260     5.3020 ca         1 K0F      -0.169000
      7 C1          -0.0400   -22.1930     5.7990 c3         1 K0F      -0.049100
      8 C3           1.1170   -19.9870     5.1200 c3         1 K0F      -0.074400
      9 N2           4.3200   -15.9760     5.1160 nb         1 K0F      -0.653000
     10 C7           2.2740   -17.8230     4.4600 ca         1 K0F      -0.042300
     11 C9           3.0650   -15.8330     5.6010 ca         1 K0F       0.343400
     12 O8           3.1420   -25.6140     7.6730 os         1 K0F      -0.329100
     13 O9           3.8790   -27.2650     6.0940 os         1 K0F      -0.322100
     14 C16         -7.0230   -20.3740     6.3610 c3         1 K0F       0.136900
     15 C17         -7.2430   -23.9130     4.3780 c3         1 K0F       0.142900
     16 C18         -5.2730   -21.9990     5.6610 ca         1 K0F       0.149100
     17 C19         -4.2570   -21.1960     6.2210 ca         1 K0F      -0.115000
     18 C20         -4.9090   -23.2250     5.0240 ca         1 K0F       0.096100
     19 C21         -2.9120   -21.5850     6.1580 ca         1 K0F      -0.075000
     20 C22         -2.5280   -22.7890     5.5260 ca         1 K0F      -0.010000
     21 C23         -3.5410   -23.6010     4.9660 ca         1 K0F      -0.081000
     22 C24         -3.1700   -24.7900     4.3140 ca         1 K0F      -0.003000
     23 C25         -0.8580   -24.5180     4.9740 ca         1 K0F       0.014700
     24 C26         -1.1620   -23.2100     5.4760 ca         1 K0F      -0.016300
     25 C27         -1.5330   -26.4140     3.4470 c6         1 K0F       0.035600
     26 C28         -0.0390   -26.5130     3.0980 c6         1 K0F      -0.051100
     27 C29          0.7960   -26.2280     4.3360 ca         1 K0F      -0.063300
     28 C30          0.3700   -25.2060     5.2310 ca         1 K0F      -0.090000
     29 C31          1.1390   -24.9790     6.4070 ca         1 K0F      -0.066000
     30 C32          1.9910   -26.9480     4.5610 ca         1 K0F      -0.090000
     31 C33          2.7330   -26.6510     5.7060 ca         1 K0F       0.103100
     32 C34          2.3170   -25.7090     6.5990 ca         1 K0F       0.062100
     33 C35          4.2400   -26.5280     7.3160 c5         1 K0F       0.369600
     34 H7           1.3390   -19.2190     3.1040 hc         1 K0F       0.052700
     35 H8           0.2040   -18.3120     4.0890 hc         1 K0F       0.052700
     36 H3           0.1850   -21.4200     3.7870 hc         1 K0F       0.046700
     37 H4          -0.9520   -20.4930     4.7490 hc         1 K0F       0.046700
     38 H10          3.8330   -18.8030     3.3060 ha         1 K0F       0.118500
     39 H9           5.5810   -17.1310     3.9280 h4         1 K0F       0.023600
     40 H29          1.0350   -16.5610     5.7230 ha         1 K0F       0.118500
     41 H2           0.9550   -22.6360     5.7330 hc         1 K0F       0.072700
     42 H1          -0.1340   -21.8190     6.8260 hc         1 K0F       0.072700
     43 H6           2.0900   -20.4940     5.1370 hc         1 K0F       0.049700
     44 H5           0.9480   -19.5830     6.1260 hc         1 K0F       0.049700
     45 H30          2.8910   -14.9760     6.2520 h4         1 K0F       0.023600
     46 H12         -8.1130   -20.2720     6.2940 h1         1 K0F       0.060033
     47 H11         -6.7480   -20.3620     7.4230 h1         1 K0F       0.060033
     48 H13         -6.5710   -19.5050     5.8670 h1         1 K0F       0.060033
     49 H15         -7.7160   -24.7550     3.8560 h1         1 K0F       0.051700
     50 H14         -7.6720   -23.8630     5.3860 h1         1 K0F       0.051700
     51 H16         -7.4980   -22.9970     3.8300 h1         1 K0F       0.051700
     52 H17         -4.4890   -20.2620     6.7230 ha         1 K0F       0.146000
     53 H18         -2.1840   -20.9380     6.6370 ha         1 K0F       0.146000
     54 H19         -3.9090   -25.4480     3.8540 h4         1 K0F       0.183000
     55 H21         -1.8230   -27.2780     4.0610 h1         1 K0F       0.094200
     56 H22         -2.1320   -26.4400     2.5260 h1         1 K0F       0.094200
     57 H23          0.1830   -27.5070     2.6860 hc         1 K0F       0.089200
     58 H24          0.2100   -25.7830     2.3160 hc         1 K0F       0.089200
     59 H25          0.8140   -24.2930     7.1840 ha         1 K0F       0.147000
     60 H26          2.3290   -27.7180     3.8730 ha         1 K0F       0.153000
     61 H27          5.1450   -25.9400     7.1240 h2         1 K0F       0.085700
     62 H28          4.4190   -27.2330     8.1370 h2         1 K0F       0.085700
     63 O6          -6.5990   -21.6000     5.7340 os         1 K0F      -0.313100
     64 O7          -5.8170   -24.1030     4.4320 os         1 K0F      -0.347100
@<TRIPOS>BOND
     1     1     8 1   
     2     1    10 1   
     3     1    34 1   
     4     1    35 1   
     5     2     7 1   
     6     2     8 1   
     7     2    36 1   
     8     2    37 1   
     9     3    22 1   
    10     3    23 2   
    11     3    25 1   
    12     4     5 ar  
    13     4    10 ar  
    14     4    38 1   
    15     5     9 ar  
    16     5    39 1   
    17     6    10 ar  
    18     6    11 ar  
    19     6    40 1   
    20     7    24 1   
    21     7    41 1   
    22     7    42 1   
    23     8    43 1   
    24     8    44 1   
    25     9    11 ar  
    26    11    45 1   
    27    12    32 1   
    28    12    33 1   
    29    13    31 1   
    30    13    33 1   
    31    14    46 1   
    32    14    47 1   
    33    14    48 1   
    34    14    63 1   
    35    15    49 1   
    36    15    50 1   
    37    15    51 1   
    38    15    64 1   
    39    16    17 ar  
    40    16    18 ar  
    41    16    63 1   
    42    17    19 ar  
    43    17    52 1   
    44    18    21 ar  
    45    18    64 1   
    46    19    20 ar  
    47    19    53 1   
    48    20    21 ar  
    49    20    24 ar  
    50    21    22 ar  
    51    22    54 1   
    52    23    24 ar  
    53    23    28 1   
    54    25    26 1   
    55    25    55 1   
    56    25    56 1   
    57    26    27 1   
    58    26    57 1   
    59    26    58 1   
    60    27    28 ar  
    61    27    30 ar  
    62    28    29 ar  
    63    29    32 ar  
    64    29    59 1   
    65    30    31 ar  
    66    30    60 1   
    67    31    32 ar  
    68    33    61 1   
    69    33    62 1   
@<TRIPOS>SUBSTRUCTURE
     1 K0F         1 TEMP              0 ****  ****    0 ROOT
