@<TRIPOS>MOLECULE
K0G
   27    28     1     0     0
SMALL
No Charge or Current Charge


@<TRIPOS>ATOM
      1 N1          -1.1280     0.5430     0.1510 ns         1 K0G      -0.161000
      2 C4           5.3200    -0.3320    -0.1760 ca         1 K0G      -0.131000
      3 C5           4.4040    -1.3940    -0.2250 ca         1 K0G      -0.086000
      4 C6           3.0220    -1.1400    -0.1490 ca         1 K0G      -0.141000
      5 C7          -2.5180     0.2240     0.1820 ca         1 K0G      -0.064000
      6 C8          -3.0260    -1.0920     0.1000 ca         1 K0G      -0.087000
      7 C10         -5.2600    -0.1570     0.2620 ca         1 K0G       0.308900
      8 N            1.1650     0.5220     0.0570 ns         1 K0G      -0.164000
      9 C            0.0090    -0.2470     0.0440 c          1 K0G       0.665100
     10 O           -0.0100    -1.4690    -0.0500 o          1 K0G      -0.600100
     11 C1           2.5450     0.1840    -0.0240 ca         1 K0G      -0.015000
     12 C11         -3.4460     1.2830     0.3010 ca         1 K0G       0.285900
     13 C2           3.4750     1.2400     0.0230 ca         1 K0G      -0.141000
     14 C3           4.8560     0.9860    -0.0520 ca         1 K0G      -0.086000
     15 C9          -4.4190    -1.2760     0.1420 ca         1 K0G      -0.138000
     16 N2          -4.7880     1.1080     0.3410 nb         1 K0G      -0.644000
     17 H1          -0.9370     1.5340     0.2200 hn         1 K0G       0.149000
     18 H3           4.7630    -2.4170    -0.3210 ha         1 K0G       0.114500
     19 H4           2.3450    -1.9870    -0.1900 ha         1 K0G       0.124500
     20 H5          -2.3800    -1.9610     0.0080 ha         1 K0G       0.148000
     21 H6          -6.3420    -0.2760     0.2960 h4         1 K0G       0.022100
     22 H7           0.9980     1.5160     0.1410 hn         1 K0G       0.147000
     23 H8          -3.1000     2.3140     0.3660 h4         1 K0G       0.012100
     24 H9           3.1290     2.2670     0.1190 ha         1 K0G       0.124500
     25 H10          5.5640     1.8110    -0.0140 ha         1 K0G       0.114500
     26 H11         -4.8490    -2.2720     0.0820 ha         1 K0G       0.126000
     27 H2           6.3880    -0.5310    -0.2340 ha         1 K0G       0.116000
@<TRIPOS>BOND
     1     1     5 1   
     2     1     9 1   
     3     1    17 1   
     4     2     3 ar  
     5     2    14 ar  
     6     2    27 1   
     7     3     4 ar  
     8     3    18 1   
     9     4    11 ar  
    10     4    19 1   
    11     5     6 ar  
    12     5    12 ar  
    13     6    15 ar  
    14     6    20 1   
    15     7    15 ar  
    16     7    16 ar  
    17     7    21 1   
    18     8     9 1   
    19     8    11 1   
    20     8    22 1   
    21     9    10 2   
    22    11    13 ar  
    23    12    16 ar  
    24    12    23 1   
    25    13    14 ar  
    26    13    24 1   
    27    14    25 1   
    28    15    26 1   
@<TRIPOS>SUBSTRUCTURE
     1 K0G         1 TEMP              0 ****  ****    0 ROOT
