@<TRIPOS>MOLECULE
K0G
   27    28     1     0     0
SMALL
abcg2


@<TRIPOS>ATOM
      1 N1          -1.1240     0.7510     0.1460 ns         1 K0G      -0.161000
      2 C4           5.1510    -0.4990    -0.1700 ca         1 K0G      -0.131000
      3 C5           4.1600    -1.3030    -0.7150 ca         1 K0G      -0.086000
      4 C6           2.8240    -0.9260    -0.6750 ca         1 K0G      -0.141000
      5 C7          -2.4320     0.2740     0.1610 ca         1 K0G      -0.064000
      6 C8          -2.8210    -0.9620     0.6730 ca         1 K0G      -0.087000
      7 C10         -5.0820    -0.3830     0.1350 ca         1 K0G       0.308900
      8 N            1.1480     0.7480    -0.0060 ns         1 K0G      -0.164000
      9 C            0.0130    -0.0120     0.0540 c          1 K0G       0.665100
     10 O            0.0040    -1.2280     0.0300 o          1 K0G      -0.600100
     11 C1           2.4640     0.2760    -0.0640 ca         1 K0G      -0.015000
     12 C11         -3.4350     1.1140    -0.3310 ca         1 K0G       0.285900
     13 C2           3.4610     1.0860     0.4820 ca         1 K0G      -0.141000
     14 C3           4.7920     0.7040     0.4230 ca         1 K0G      -0.086000
     15 C9          -4.1680    -1.2880     0.6480 ca         1 K0G      -0.138000
     16 N2          -4.7190     0.8030    -0.3410 nb         1 K0G      -0.644000
     17 H1          -1.0330     1.7440    -0.0060 hn         1 K0G       0.149000
     18 H3           4.4250    -2.2380    -1.1910 ha         1 K0G       0.114500
     19 H4           2.0810    -1.5620    -1.1290 ha         1 K0G       0.124500
     20 H5          -2.1060    -1.6530     1.0890 ha         1 K0G       0.148000
     21 H6          -6.1400    -0.6190     0.1080 h4         1 K0G       0.022100
     22 H7           1.0580     1.7360     0.1780 hn         1 K0G       0.147000
     23 H8          -3.1660     2.0880    -0.7320 h4         1 K0G       0.012100
     24 H9           3.1920     2.0230     0.9560 ha         1 K0G       0.124500
     25 H10          5.5480     1.3500     0.8500 ha         1 K0G       0.114500
     26 H11         -4.5040    -2.2390     1.0370 ha         1 K0G       0.126000
     27 H2           6.1880    -0.8030    -0.2110 ha         1 K0G       0.116000
@<TRIPOS>BOND
     1     1     5 1   
     2     1     9 1   
     3     1    17 1   
     4     2     3 ar  
     5     2    14 ar  
     6     2    27 1   
     7     3     4 ar  
     8     3    18 1   
     9     4    11 ar  
    10     4    19 1   
    11     5     6 ar  
    12     5    12 ar  
    13     6    15 ar  
    14     6    20 1   
    15     7    15 ar  
    16     7    16 ar  
    17     7    21 1   
    18     8     9 1   
    19     8    11 1   
    20     8    22 1   
    21     9    10 2   
    22    11    13 ar  
    23    12    16 ar  
    24    12    23 1   
    25    13    14 ar  
    26    13    24 1   
    27    14    25 1   
    28    15    26 1   
@<TRIPOS>SUBSTRUCTURE
     1 K0G         1 TEMP              0 ****  ****    0 ROOT
