@<TRIPOS>MOLECULE
K0H
   93    98     1     0     0
SMALL
bcc


@<TRIPOS>ATOM
      1 N           48.8020    32.4910     3.1980 n          1 K0H      -0.446800
      2 CA          50.1060    33.1140     3.2730 c5         1 K0H       0.036700
      3 C           50.7390    32.8820     4.6360 c          1 K0H       0.676100
      4 O           50.0600    32.6040     5.6120 o          1 K0H      -0.577100
      5 CB          49.8160    34.6180     3.0620 c5         1 K0H      -0.085400
      6 CG          48.4110    34.6450     2.4660 c5         1 K0H      -0.089400
      7 CD          47.7360    33.4790     3.1820 c5         1 K0H       0.148900
      8 CAP         49.5230    26.4530    -0.5850 ca         1 K0H      -0.066300
      9 CAS         52.2340    34.0220     7.0230 c          1 K0H       0.714500
     10 CAT         49.2680    27.6600     0.2660 c3         1 K0H      -0.046100
     11 CAU         51.1390    35.4470     9.3450 c          1 K0H       0.639100
     12 CAV         47.2660    27.9940    -2.4450 c          1 K0H       0.673100
     13 CAW         47.2720    30.6160     2.8810 c5         1 K0H       0.080600
     14 CAX         54.1720    33.3330     5.7090 c5         1 K0H      -0.053500
     15 CAY         52.7080    32.9980     6.0160 c5         1 K0H       0.035700
     16 CBA         53.0370    33.1460     3.6330 c5         1 K0H       0.110000
     17 CBB         53.4410    32.6270     8.6630 c3         1 K0H       0.156900
     18 CBC         55.1290    32.8930     6.7680 c2         1 K0H      -0.140200
     19 CBD         50.3030    26.5670    -1.7350 ca         1 K0H      -0.119000
     20 CBF         47.9300    28.3420    -0.1050 c3         1 K0H       0.039700
     21 CBG         48.6900    31.1700     3.0280 c          1 K0H       0.732500
     22 CBI         48.9720    25.2030    -0.3170 ca         1 K0H       0.048400
     23 CBJ         53.5430    32.3900    10.1680 c3         1 K0H      -0.081400
     24 CBK         46.2850    31.6520     2.4180 c2         1 K0H      -0.148200
     25 CBL         50.5210    25.4890    -2.5780 ca         1 K0H      -0.129000
     26 CBM         49.8180    37.3380     9.8050 c3         1 K0H       0.131700
     27 CBN         54.3430    32.7450     4.3120 c5         1 K0H      -0.089400
     28 CBO         46.4890    32.9500     2.5730 c2         1 K0H      -0.163200
     29 CBP         54.8220    32.6130     8.0330 c2         1 K0H      -0.197200
     30 CBR         46.7640    28.2520     2.6000 c5         1 K0H       0.106000
     31 CBS         49.9600    24.2560    -2.2800 ca         1 K0H      -0.117000
     32 CBT         47.4600    28.5000    -3.8530 c3         1 K0H      -0.178100
     33 CBU         46.8290    29.9850     4.2230 c5         1 K0H      -0.076400
     34 CBV         49.1840    24.1090    -1.1410 ca         1 K0H      -0.114000
     35 CBW         45.9920    28.7880     3.7940 c5         1 K0H      -0.094400
     36 NAI         52.6480    33.8170     8.2980 n          1 K0H      -0.460800
     37 NAK         47.9010    28.7070    -1.4940 ns         1 K0H      -0.566900
     38 NAL         52.0650    33.0860     4.7270 n          1 K0H      -0.470800
     39 NAM         47.2880    29.4660     1.9810 n          1 K0H      -0.460800
     40 OAC         51.0930    36.7560     9.5350 os         1 K0H      -0.420900
     41 OAE         50.1790    34.7220     9.3890 o          1 K0H      -0.516000
     42 OAF         48.1710    30.6800     0.3110 o          1 K0H      -0.613100
     43 OAG         49.6580    30.4240     3.0320 o          1 K0H      -0.647500
     44 OAH         46.5870    27.0070    -2.2030 o          1 K0H      -0.606100
     45 CLAA        47.9740    24.9810     1.0890 cl         1 K0H      -0.125400
     46 HA          50.7330    32.7270     2.4680 h1         1 K0H       0.079700
     47 HB2         50.5650    35.0800     2.4200 hc         1 K0H       0.065200
     48 HB1         49.8270    35.1520     4.0140 hc         1 K0H       0.065200
     49 HG1         48.4340    34.4550     1.3910 hc         1 K0H       0.059700
     50 HG2         47.8990    35.5910     2.6380 hc         1 K0H       0.059700
     51 HD          47.5190    33.7920     4.2140 h1         1 K0H       0.073700
     52 HAQ         52.9780    34.7640    10.1290 h1         1 K0H       0.072200
     53 HAR         53.1680    35.8070     8.7440 h1         1 K0H       0.072200
     54 HAT         49.2700    27.4020     1.3260 hc         1 K0H       0.070700
     55 HAU         50.0740    28.3810     0.1140 hc         1 K0H       0.070700
     56 HAX         54.2640    34.4230     5.6010 hc         1 K0H       0.077700
     57 HAY         52.6270    31.9760     6.3980 h1         1 K0H       0.081700
     58 HA0         52.3690    31.9140    11.9140 hc         1 K0H       0.044367
     59 HA1         51.5360    32.9900    10.8030 hc         1 K0H       0.044367
     60 HAZ         51.7000    31.2870    10.4110 hc         1 K0H       0.044367
     61 HBB         53.1000    34.1550     3.2200 h1         1 K0H       0.053200
     62 HBA         52.7730    32.4630     2.8270 h1         1 K0H       0.053200
     63 HBC         52.8840    31.7620     8.2910 h1         1 K0H       0.074700
     64 HBD         56.1720    32.8460     6.4710 ha         1 K0H       0.129000
     65 HBE         50.7480    27.5270    -1.9660 ha         1 K0H       0.131000
     66 HBF         47.1090    27.6470     0.0710 h1         1 K0H       0.099700
     67 HBJ         54.1670    31.5000    10.2800 hc         1 K0H       0.043700
     68 HDL         54.1030    33.1920    10.6580 hc         1 K0H       0.043700
     69 HBK         45.3580    31.2840     1.9920 ha         1 K0H       0.138000
     70 HBL         51.1300    25.6120    -3.4640 ha         1 K0H       0.132000
     71 HDM         49.9970    38.4020     9.9330 h1         1 K0H       0.047033
     72 HBM         49.1290    37.1860     8.9750 h1         1 K0H       0.047033
     73 HDN         49.3780    36.9330    10.7160 h1         1 K0H       0.047033
     74 HDO         54.4310    31.6570     4.3610 hc         1 K0H       0.060200
     75 HBN         55.2160    33.1360     3.7910 hc         1 K0H       0.060200
     76 HBO         45.7330    33.6730     2.2940 ha         1 K0H       0.139000
     77 HBP         55.6310    32.3160     8.6920 ha         1 K0H       0.129000
     78 HBR         46.1300    27.6940     1.9130 h1         1 K0H       0.057200
     79 HG3         47.5780    27.5980     2.9250 h1         1 K0H       0.057200
     80 HBS         50.1250    23.4050    -2.9280 ha         1 K0H       0.135000
     81 HG4         46.4920    28.6090    -4.3400 hc         1 K0H       0.059700
     82 HG5         47.9890    29.4490    -3.9080 hc         1 K0H       0.059700
     83 HBT         48.0270    27.7600    -4.4190 hc         1 K0H       0.059700
     84 HBU         47.7040    29.6410     4.7790 hc         1 K0H       0.071700
     85 HG6         46.2930    30.6990     4.8450 hc         1 K0H       0.071700
     86 HBV         48.7420    23.1520    -0.8980 ha         1 K0H       0.147000
     87 HG7         44.9920    29.1020     3.4900 hc         1 K0H       0.057200
     88 HBW         45.8850    28.0440     4.5820 hc         1 K0H       0.057200
     89 HAK         48.4460    29.5100    -1.7650 hn         1 K0H       0.329500
     90 CAR         47.7850    29.6020     0.7420 c          1 K0H       0.671100
     91 OAB         51.6520    35.0410     6.6900 o          1 K0H      -0.618500
     92 CAQ         52.5690    34.9860     9.1440 c3         1 K0H       0.044000
     93 CAZ         52.2120    32.1400    10.8600 c3         1 K0H      -0.094100
@<TRIPOS>BOND
     1     1     2 1   
     2     1     7 1   
     3     1    21 1   
     4     2     3 1   
     5     2     5 1   
     6     2    46 1   
     7     3     4 2   
     8     3    38 1   
     9     5     6 1   
    10     5    47 1   
    11     5    48 1   
    12     6     7 1   
    13     6    49 1   
    14     6    50 1   
    15     7    28 1   
    16     7    51 1   
    17     8    10 1   
    18     8    19 ar  
    19     8    22 ar  
    20     9    15 1   
    21     9    36 1   
    22     9    91 2   
    23    10    20 1   
    24    10    54 1   
    25    10    55 1   
    26    11    40 1   
    27    11    41 2   
    28    11    92 1   
    29    12    32 1   
    30    12    37 1   
    31    12    44 2   
    32    13    21 1   
    33    13    24 1   
    34    13    33 1   
    35    13    39 1   
    36    14    15 1   
    37    14    18 1   
    38    14    27 1   
    39    14    56 1   
    40    15    38 1   
    41    15    57 1   
    42    16    27 1   
    43    16    38 1   
    44    16    61 1   
    45    16    62 1   
    46    17    23 1   
    47    17    29 1   
    48    17    36 1   
    49    17    63 1   
    50    18    29 2   
    51    18    64 1   
    52    19    25 ar  
    53    19    65 1   
    54    20    37 1   
    55    20    66 1   
    56    20    90 1   
    57    21    43 2   
    58    22    34 ar  
    59    22    45 1   
    60    23    67 1   
    61    23    68 1   
    62    23    93 1   
    63    24    28 2   
    64    24    69 1   
    65    25    31 ar  
    66    25    70 1   
    67    26    40 1   
    68    26    71 1   
    69    26    72 1   
    70    26    73 1   
    71    27    74 1   
    72    27    75 1   
    73    28    76 1   
    74    29    77 1   
    75    30    35 1   
    76    30    39 1   
    77    30    78 1   
    78    30    79 1   
    79    31    34 ar  
    80    31    80 1   
    81    32    81 1   
    82    32    82 1   
    83    32    83 1   
    84    33    35 1   
    85    33    84 1   
    86    33    85 1   
    87    34    86 1   
    88    35    87 1   
    89    35    88 1   
    90    36    92 1   
    91    37    89 1   
    92    39    90 1   
    93    42    90 2   
    94    52    92 1   
    95    53    92 1   
    96    58    93 1   
    97    59    93 1   
    98    60    93 1   
@<TRIPOS>SUBSTRUCTURE
     1 K0H         1 TEMP              0 ****  ****    0 ROOT
