@<TRIPOS>MOLECULE
K0H
   93    98     1     0     0
SMALL
No Charge or Current Charge


@<TRIPOS>ATOM
      1 N           48.9400    32.9890     2.7270 n          1 K0H      -0.379800
      2 CA          50.2150    33.6790     3.0640 c5         1 K0H       0.036700
      3 C           50.9330    33.1490     4.3570 c          1 K0H       0.609100
      4 O           50.4700    32.3430     5.1570 o          1 K0H      -0.577100
      5 CB          49.7310    35.1460     3.3120 c5         1 K0H      -0.085400
      6 CG          48.4800    35.2440     2.4010 c5         1 K0H      -0.089400
      7 CD          47.7790    33.9010     2.7140 c5         1 K0H       0.148900
      8 CAP         48.8410    25.7310     0.0170 ca         1 K0H      -0.066300
      9 CAS         52.1170    34.1770     7.1450 c          1 K0H       0.572000
     10 CAT         48.8270    27.1860     0.4850 c3         1 K0H      -0.046100
     11 CAU         50.9210    34.1900    10.1250 c          1 K0H       0.590100
     12 CAV         47.7710    27.2350    -2.7510 c          1 K0H       0.606100
     13 CAW         47.3990    31.1610     2.0990 c5         1 K0H       0.080600
     14 CAX         54.0870    34.6140     5.6590 c5         1 K0H      -0.053500
     15 CAY         52.8890    33.6540     5.8880 c5         1 K0H       0.035700
     16 CBA         53.0580    34.2950     3.5110 c5         1 K0H       0.110000
     17 CBB         54.0100    33.0480     8.4360 c3         1 K0H       0.156900
     18 CBC         55.2860    34.3430     6.5670 c2         1 K0H      -0.190200
     19 CBD         49.9200    25.2670    -0.7650 ca         1 K0H      -0.101000
     20 CBF         47.9080    28.1030    -0.3680 c3         1 K0H       0.039700
     21 CBG         48.8760    31.6130     2.4110 c          1 K0H       0.590000
     22 CBI         47.7930    24.8360     0.3400 ca         1 K0H       0.140000
     23 CBJ         54.4380    32.5120     9.8380 c3         1 K0H      -0.081400
     24 CBK         46.6220    32.2130     1.3050 c2         1 K0H      -0.198200
     25 CBL         49.9540    23.9370    -1.2180 ca         1 K0H      -0.111000
     26 CBM         49.1950    34.7410    11.7160 c3         1 K0H       0.154900
     27 CBN         54.4520    34.2790     4.1940 c5         1 K0H      -0.089400
     28 CBO         46.8270    33.5130     1.5870 c2         1 K0H      -0.213200
     29 CBP         55.2110    33.6920     7.7460 c2         1 K0H      -0.247200
     30 CBR         46.2920    28.9420     2.0440 c5         1 K0H       0.106000
     31 CBS         48.9110    23.0560    -0.8930 ca         1 K0H      -0.099000
     32 CBT         48.4000    27.3610    -4.1310 c3         1 K0H      -0.178100
     33 CBU         46.6580    30.8670     3.4430 c5         1 K0H      -0.076400
     34 CBV         47.8320    23.5070    -0.1140 ca         1 K0H      -0.096000
     35 CBW         45.5350    29.8970     3.0000 c5         1 K0H      -0.094400
     36 NAI         52.7990    33.9310     8.3710 n          1 K0H      -0.393800
     37 NAK         48.3080    28.0670    -1.7960 ns         1 K0H      -0.499900
     38 NAL         52.1720    33.7940     4.5900 n          1 K0H      -0.403800
     39 NAM         47.2620    29.8550     1.3920 n          1 K0H      -0.393800
     40 OAC         50.4650    35.0360    11.1050 os         1 K0H      -0.444100
     41 OAE         50.3270    33.1830     9.7560 o          1 K0H      -0.467000
     42 OAF         48.5040    30.4580    -0.4440 o          1 K0H      -0.613100
     43 OAG         49.8790    30.9050     2.3790 o          1 K0H      -0.572000
     44 OAH         46.8540    26.4630    -2.5150 o          1 K0H      -0.606100
     45 ClAA        46.4150    25.3490     1.3170 cl         1 K0H      -0.217000
     46 HA          50.8970    33.6170     2.2080 h1         1 K0H       0.079700
     47 HB2         50.4930    35.8930     3.0610 hc         1 K0H       0.065200
     48 HB1         49.4570    35.3060     4.3620 hc         1 K0H       0.065200
     49 HG1         48.7670    35.3160     1.3440 hc         1 K0H       0.059700
     50 HG2         47.8510    36.1110     2.6330 hc         1 K0H       0.059700
     51 HD          47.2810    33.9210     3.6950 h1         1 K0H       0.073700
     52 HAQ         53.0090    34.5800    10.4250 h1         1 K0H       0.072200
     53 HAR         52.2090    35.7080     9.3580 h1         1 K0H       0.072200
     54 HAT         48.5360    27.2340     1.5400 hc         1 K0H       0.070700
     55 HAU         49.8440    27.5970     0.4550 hc         1 K0H       0.070700
     56 HAX         53.7780    35.6640     5.7430 hc         1 K0H       0.077700
     57 HAY         53.1920    32.6090     6.0150 h1         1 K0H       0.081700
     58 HA0         53.8790    31.1010    11.4030 hc         1 K0H       0.044367
     59 HA1         52.5430    32.1320    10.8860 hc         1 K0H       0.044367
     60 HAZ         53.0810    30.7930     9.8480 hc         1 K0H       0.044367
     61 HBB         52.7740    35.3140     3.2170 h1         1 K0H       0.053200
     62 HBA         53.0460    33.6550     2.6190 h1         1 K0H       0.053200
     63 HBC         53.7700    32.1320     7.8810 h1         1 K0H       0.074700
     64 HBD         56.2620    34.7240     6.2560 ha         1 K0H       0.179000
     65 HBE         50.7330    25.9400    -1.0270 ha         1 K0H       0.113000
     66 HBF         46.8760    27.7410    -0.2940 h1         1 K0H       0.099700
     67 HBJ         55.3520    31.9190     9.7030 hc         1 K0H       0.043700
     68 HDL         54.7220    33.3340    10.5050 hc         1 K0H       0.043700
     69 HBK         45.9330    31.9240     0.5090 ha         1 K0H       0.188000
     70 HBL         50.7900    23.5900    -1.8220 ha         1 K0H       0.114000
     71 HDM         48.9530    35.4950    12.4760 h1         1 K0H       0.047033
     72 HBM         48.3910    34.7420    10.9680 h1         1 K0H       0.047033
     73 HDN         49.2140    33.7590    12.2060 h1         1 K0H       0.047033
     74 HDO         54.9150    33.2880     4.1140 hc         1 K0H       0.060200
     75 HBN         55.1440    35.0020     3.7470 hc         1 K0H       0.060200
     76 HBO         46.2920    34.2830     1.0280 ha         1 K0H       0.189000
     77 HBP         56.1390    33.5810     8.3110 ha         1 K0H       0.179000
     78 HBR         45.6060    28.4680     1.3300 h1         1 K0H       0.057200
     79 HG3         46.8110    28.1570     2.6090 h1         1 K0H       0.057200
     80 HBS         48.9370    22.0260    -1.2440 ha         1 K0H       0.117000
     81 HG4         47.9400    26.6930    -4.8680 hc         1 K0H       0.059700
     82 HG5         48.3580    28.4080    -4.4500 hc         1 K0H       0.059700
     83 HBT         49.4790    27.1860    -4.0460 hc         1 K0H       0.059700
     84 HBU         47.3270    30.3790     4.1630 hc         1 K0H       0.071700
     85 HG6         46.2660    31.7660     3.9310 hc         1 K0H       0.071700
     86 HBV         47.0230    22.8260     0.1380 ha         1 K0H       0.129000
     87 HG7         44.7350    30.4290     2.4730 hc         1 K0H       0.057200
     88 HBW         45.0750    29.3660     3.8410 hc         1 K0H       0.057200
     89 HAK         49.0330    28.7060    -2.1050 hn         1 K0H       0.329500
     90 CAR         47.9140    29.5710     0.1670 c          1 K0H       0.604100
     91 OAB         51.0680    34.8120     7.1100 o          1 K0H      -0.543000
     92 CAQ         52.3000    34.6410     9.5950 c3         1 K0H       0.044000
     93 CAZ         53.4180    31.5820    10.5310 c3         1 K0H      -0.094100
@<TRIPOS>BOND
     1     1     2 1   
     2     1     7 1   
     3     1    21 1   
     4     2     3 1   
     5     2     5 1   
     6     2    46 1   
     7     3     4 2   
     8     3    38 1   
     9     5     6 1   
    10     5    47 1   
    11     5    48 1   
    12     6     7 1   
    13     6    49 1   
    14     6    50 1   
    15     7    28 1   
    16     7    51 1   
    17     8    10 1   
    18     8    19 ar  
    19     8    22 ar  
    20     9    15 1   
    21     9    36 1   
    22     9    91 2   
    23    10    20 1   
    24    10    54 1   
    25    10    55 1   
    26    11    40 1   
    27    11    41 2   
    28    11    92 1   
    29    12    32 1   
    30    12    37 1   
    31    12    44 2   
    32    13    21 1   
    33    13    24 1   
    34    13    33 1   
    35    13    39 1   
    36    14    15 1   
    37    14    18 1   
    38    14    27 1   
    39    14    56 1   
    40    15    38 1   
    41    15    57 1   
    42    16    27 1   
    43    16    38 1   
    44    16    61 1   
    45    16    62 1   
    46    17    23 1   
    47    17    29 1   
    48    17    36 1   
    49    17    63 1   
    50    18    29 2   
    51    18    64 1   
    52    19    25 ar  
    53    19    65 1   
    54    20    37 1   
    55    20    66 1   
    56    20    90 1   
    57    21    43 2   
    58    22    34 ar  
    59    22    45 1   
    60    23    67 1   
    61    23    68 1   
    62    23    93 1   
    63    24    28 2   
    64    24    69 1   
    65    25    31 ar  
    66    25    70 1   
    67    26    40 1   
    68    26    71 1   
    69    26    72 1   
    70    26    73 1   
    71    27    74 1   
    72    27    75 1   
    73    28    76 1   
    74    29    77 1   
    75    30    35 1   
    76    30    39 1   
    77    30    78 1   
    78    30    79 1   
    79    31    34 ar  
    80    31    80 1   
    81    32    81 1   
    82    32    82 1   
    83    32    83 1   
    84    33    35 1   
    85    33    84 1   
    86    33    85 1   
    87    34    86 1   
    88    35    87 1   
    89    35    88 1   
    90    36    92 1   
    91    37    89 1   
    92    39    90 1   
    93    42    90 2   
    94    52    92 1   
    95    53    92 1   
    96    58    93 1   
    97    59    93 1   
    98    60    93 1   
@<TRIPOS>SUBSTRUCTURE
     1 K0H         1 TEMP              0 ****  ****    0 ROOT
