@<TRIPOS>MOLECULE
K0I
   51    54     1     0     0
SMALL
No Charge or Current Charge


@<TRIPOS>ATOM
      1 O2           5.0370     4.1580     1.5600 o          1 K0I      -0.731500
      2 C1           5.1470     3.5880     0.4860 c          1 K0I       0.725000
      3 O1           5.3460     4.1650    -0.5720 o          1 K0I      -0.731500
      4 C2           4.9630     2.0710     0.4540 c3         1 K0I      -0.231400
      5 C3           3.4730     1.7830     0.2370 c3         1 K0I       0.237800
      6 N1           3.2520     0.3330     0.2000 nu         1 K0I      -0.920100
      7 C4           2.0550    -0.3320     0.0210 ca         1 K0I       0.410900
      8 N3           2.1340    -1.6670     0.0280 nb         1 K0I      -0.314000
      9 C7           0.9890    -2.3690    -0.1350 cp         1 K0I       0.141000
     10 C8           1.0750    -3.8870    -0.1160 cp         1 K0I       0.307000
     11 N4          -0.0790    -4.5940    -0.2660 nb         1 K0I      -0.632000
     12 C12         -0.0380    -5.9450    -0.2540 ca         1 K0I       0.320900
     13 C11          1.1540    -6.6690    -0.0900 ca         1 K0I      -0.169000
     14 C10          2.3590    -5.9690     0.0680 ca         1 K0I      -0.093000
     15 C9           2.3150    -4.5650     0.0550 ca         1 K0I      -0.119000
     16 N2          -0.2250    -1.7930    -0.3070 nb         1 K0I      -0.273000
     17 C6          -0.3020    -0.4490    -0.3200 ca         1 K0I       0.390900
     18 C5           0.8440     0.3350    -0.1500 ca         1 K0I      -0.360000
     19 N5          -1.5760     0.1370    -0.4980 nh         1 K0I      -0.769300
     20 C22         -2.8120    -0.5030     0.0210 c3         1 K0I       0.220800
     21 C21         -3.5540     0.3400     1.0800 c3         1 K0I      -0.065600
     22 C20         -4.3630     1.5010     0.4990 ca         1 K0I      -0.065800
     23 C15         -3.7490     2.5540    -0.2260 ca         1 K0I      -0.065800
     24 C14         -2.2420     2.5830    -0.4840 c3         1 K0I      -0.065600
     25 C13         -1.7410     1.3730    -1.2970 c3         1 K0I       0.220800
     26 C19         -5.7590     1.5270     0.7060 ca         1 K0I      -0.112500
     27 C18         -6.5400     2.5770     0.2000 ca         1 K0I      -0.117500
     28 C17         -5.9330     3.6170    -0.5170 ca         1 K0I      -0.117500
     29 C16         -4.5460     3.6050    -0.7270 ca         1 K0I      -0.112500
     30 H21C         5.4920     1.6330    -0.4010 hc         1 K0I       0.026700
     31 H22C         5.2270     1.6270     1.4220 hc         1 K0I       0.026700
     32 H31C         2.8890     2.2330     1.0530 h1         1 K0I       0.050200
     33 H32C         3.1440     2.2390    -0.7080 h1         1 K0I       0.050200
     34 HA           4.0670    -0.2680     0.3160 hn         1 K0I       0.496000
     35 H5           0.7890     1.4160    -0.1350 ha         1 K0I       0.142000
     36 H9           3.2380    -4.0050     0.1750 ha         1 K0I       0.150000
     37 H12         -0.9890    -6.4610    -0.3780 h4         1 K0I       0.009100
     38 H11          1.1360    -7.7550    -0.0860 ha         1 K0I       0.112000
     39 H10          3.3010    -6.4980     0.1980 ha         1 K0I       0.112000
     40 H221        -3.4980    -0.7260    -0.8080 h1         1 K0I       0.062950
     41 H222        -2.5750    -1.4660     0.4910 h1         1 K0I       0.062950
     42 H131        -0.7850     1.6460    -1.7640 h1         1 K0I       0.062950
     43 H132        -2.4360     1.1900    -2.1280 h1         1 K0I       0.062950
     44 H211        -4.2170    -0.3350     1.6330 hc         1 K0I       0.059950
     45 H212        -2.8300     0.7110     1.8160 hc         1 K0I       0.059950
     46 H19         -6.2440     0.7280     1.2620 ha         1 K0I       0.107500
     47 H141        -1.9760     3.4890    -1.0410 hc         1 K0I       0.059950
     48 H142        -1.6900     2.6420     0.4610 hc         1 K0I       0.059950
     49 H16         -4.0890     4.4200    -1.2850 ha         1 K0I       0.107500
     50 H18         -7.6150     2.5850     0.3650 ha         1 K0I       0.105000
     51 H17         -6.5370     4.4330    -0.9090 ha         1 K0I       0.105000
@<TRIPOS>BOND
     1     1     2 1   
     2     2     3 1   
     3     2     4 1   
     4     4     5 1   
     5     4    30 1   
     6     4    31 1   
     7     5     6 1   
     8     5    32 1   
     9     5    33 1   
    10     6     7 1   
    11     6    34 1   
    12     7     8 ar  
    13     7    18 ar  
    14     8     9 ar  
    15     9    10 1   
    16     9    16 ar  
    17    10    11 ar  
    18    10    15 ar  
    19    11    12 ar  
    20    12    13 ar  
    21    12    37 1   
    22    13    14 ar  
    23    13    38 1   
    24    14    15 ar  
    25    14    39 1   
    26    15    36 1   
    27    16    17 ar  
    28    17    18 ar  
    29    17    19 1   
    30    18    35 1   
    31    19    20 1   
    32    19    25 1   
    33    20    21 1   
    34    20    40 1   
    35    20    41 1   
    36    21    22 1   
    37    21    44 1   
    38    21    45 1   
    39    22    23 ar  
    40    22    26 ar  
    41    23    24 1   
    42    23    29 ar  
    43    24    25 1   
    44    24    47 1   
    45    24    48 1   
    46    25    42 1   
    47    25    43 1   
    48    26    27 ar  
    49    26    46 1   
    50    27    28 ar  
    51    27    50 1   
    52    28    29 ar  
    53    28    51 1   
    54    29    49 1   
@<TRIPOS>SUBSTRUCTURE
     1 K0I         1 TEMP              0 ****  ****    0 ROOT
