@<TRIPOS>MOLECULE
K0I
   51    54     1     0     0
SMALL
abcg2


@<TRIPOS>ATOM
      1 O2           4.2640     4.4360    -0.1770 o          1 K0I      -0.731500
      2 C1           5.1630     3.6540     0.1880 c          1 K0I       0.725000
      3 O1           6.3430     3.9500     0.4620 o          1 K0I      -0.731500
      4 C2           4.7980     2.1650     0.3290 c3         1 K0I      -0.231400
      5 C3           3.3740     1.8240    -0.0680 c3         1 K0I       0.237800
      6 N1           3.1430     0.4040     0.0880 nu         1 K0I      -0.920100
      7 C4           1.9800    -0.2180    -0.1540 ca         1 K0I       0.410900
      8 N3           1.9600    -1.5430     0.0730 nb         1 K0I      -0.314000
      9 C7           0.8150    -2.1600    -0.1490 cp         1 K0I       0.141000
     10 C8           0.8050    -3.6300     0.1120 cp         1 K0I       0.307000
     11 N4          -0.3360    -4.2820    -0.0950 nb         1 K0I      -0.632000
     12 C12         -0.3680    -5.5870     0.1260 ca         1 K0I       0.320900
     13 C11          0.7280    -6.3190     0.5630 ca         1 K0I      -0.169000
     14 C10          1.9170    -5.6410     0.7790 ca         1 K0I      -0.093000
     15 C9           1.9590    -4.2750     0.5520 ca         1 K0I      -0.119000
     16 N2          -0.3110    -1.6210    -0.5750 nb         1 K0I      -0.273000
     17 C6          -0.3070    -0.3010    -0.8210 ca         1 K0I       0.390900
     18 C5           0.8460     0.4620    -0.6080 ca         1 K0I      -0.360000
     19 N5          -1.4670     0.2260    -1.3020 nh         1 K0I      -0.769300
     20 C22         -2.7040    -0.5150    -1.1560 c3         1 K0I       0.220800
     21 C21         -3.3890    -0.2850     0.1950 c3         1 K0I      -0.065600
     22 C20         -4.1240     1.0250     0.3280 ca         1 K0I      -0.065800
     23 C15         -3.4900     2.2660     0.1590 ca         1 K0I      -0.065800
     24 C14         -2.0250     2.3810    -0.1760 c3         1 K0I      -0.065600
     25 C13         -1.6180     1.6550    -1.4630 c3         1 K0I       0.220800
     26 C19         -5.4850     1.0040     0.6260 ca         1 K0I      -0.112500
     27 C18         -6.2230     2.1720     0.7630 ca         1 K0I      -0.117500
     28 C17         -5.5950     3.3960     0.5970 ca         1 K0I      -0.117500
     29 C16         -4.2410     3.4310     0.2960 ca         1 K0I      -0.112500
     30 H21C         5.4990     1.5750    -0.2700 hc         1 K0I       0.026700
     31 H22C         4.9710     1.8630     1.3680 hc         1 K0I       0.026700
     32 H31C         2.6690     2.3910     0.5480 h1         1 K0I       0.050200
     33 H32C         3.1930     2.1210    -1.1050 h1         1 K0I       0.050200
     34 HA           3.8900    -0.1720     0.4430 hn         1 K0I       0.496000
     35 H5           0.8770     1.5290    -0.7620 ha         1 K0I       0.142000
     36 H9           2.8670    -3.7120     0.7110 ha         1 K0I       0.150000
     37 H12         -1.3160    -6.0830    -0.0540 h4         1 K0I       0.009100
     38 H11          0.6450    -7.3850     0.7260 ha         1 K0I       0.112000
     39 H10          2.8000    -6.1650     1.1190 ha         1 K0I       0.112000
     40 H221        -3.3740    -0.2280    -1.9710 h1         1 K0I       0.062950
     41 H222        -2.4880    -1.5740    -1.2670 h1         1 K0I       0.062950
     42 H131        -0.6940     2.0790    -1.8520 h1         1 K0I       0.062950
     43 H132        -2.3730     1.8270    -2.2350 h1         1 K0I       0.062950
     44 H211        -4.1030    -1.0970     0.3520 hc         1 K0I       0.059950
     45 H212        -2.6390    -0.3860     0.9870 hc         1 K0I       0.059950
     46 H19         -5.9780     0.0480     0.7570 ha         1 K0I       0.107500
     47 H141        -1.7750     3.4380    -0.2880 hc         1 K0I       0.059950
     48 H142        -1.4130     2.0100     0.6540 hc         1 K0I       0.059950
     49 H16         -3.7520     4.3890     0.1610 ha         1 K0I       0.107500
     50 H18         -7.2790     2.1210     0.9930 ha         1 K0I       0.105000
     51 H17         -6.1530     4.3180     0.7000 ha         1 K0I       0.105000
@<TRIPOS>BOND
     1     1     2 1   
     2     2     3 1   
     3     2     4 1   
     4     4     5 1   
     5     4    30 1   
     6     4    31 1   
     7     5     6 1   
     8     5    32 1   
     9     5    33 1   
    10     6     7 1   
    11     6    34 1   
    12     7     8 ar  
    13     7    18 ar  
    14     8     9 ar  
    15     9    10 1   
    16     9    16 ar  
    17    10    11 ar  
    18    10    15 ar  
    19    11    12 ar  
    20    12    13 ar  
    21    12    37 1   
    22    13    14 ar  
    23    13    38 1   
    24    14    15 ar  
    25    14    39 1   
    26    15    36 1   
    27    16    17 ar  
    28    17    18 ar  
    29    17    19 1   
    30    18    35 1   
    31    19    20 1   
    32    19    25 1   
    33    20    21 1   
    34    20    40 1   
    35    20    41 1   
    36    21    22 1   
    37    21    44 1   
    38    21    45 1   
    39    22    23 ar  
    40    22    26 ar  
    41    23    24 1   
    42    23    29 ar  
    43    24    25 1   
    44    24    47 1   
    45    24    48 1   
    46    25    42 1   
    47    25    43 1   
    48    26    27 ar  
    49    26    46 1   
    50    27    28 ar  
    51    27    50 1   
    52    28    29 ar  
    53    28    51 1   
    54    29    49 1   
@<TRIPOS>SUBSTRUCTURE
     1 K0I         1 TEMP              0 ****  ****    0 ROOT
