@<TRIPOS>MOLECULE
K0J
   18    18     1     0     0
SMALL
abcg2


@<TRIPOS>ATOM
      1 N1           2.9510    -0.0180     0.0080 na         1 K0J      -0.014200
      2 N3           1.1560    -1.1010     0.1310 nc         1 K0J      -0.356000
      3 C4           2.0070     0.9250    -0.0510 cd         1 K0J      -0.137000
      4 N           -1.5030    -0.1840     0.0990 ns         1 K0J      -0.491900
      5 C           -3.7540    -1.0990    -0.0850 c3         1 K0J      -0.111100
      6 O           -0.7450     1.9420    -0.0740 o          1 K0J      -0.615100
      7 C1          -2.9130     0.1480     0.1150 c3         1 K0J       0.107000
      8 C3           0.8390     0.2100     0.0300 cc         1 K0J       0.134500
      9 N2           2.4330    -1.2300     0.1160 nd         1 K0J      -0.191800
     10 H1           3.9540     0.1010    -0.0230 hn         1 K0J       0.382000
     11 H2           2.2230     1.9760    -0.1400 h4         1 K0J       0.186000
     12 H3          -1.2340    -1.1510     0.2080 hn         1 K0J       0.336500
     13 H4          -3.5310    -1.5790    -1.0380 hc         1 K0J       0.043033
     14 H5          -3.5870    -1.8250     0.7130 hc         1 K0J       0.043033
     15 H6          -4.8110    -0.8380    -0.0770 hc         1 K0J       0.043033
     16 H7          -3.1780     0.6270     1.0620 h1         1 K0J       0.050200
     17 H8          -3.1190     0.8710    -0.6750 h1         1 K0J       0.050200
     18 C2          -0.5390     0.7380     0.0150 c          1 K0J       0.541600
@<TRIPOS>BOND
     1     1     3 1   
     2     1     9 1   
     3     1    10 1   
     4     2     8 1   
     5     2     9 2   
     6     3     8 2   
     7     3    11 1   
     8     4     7 1   
     9     4    12 1   
    10     4    18 1   
    11     5     7 1   
    12     5    13 1   
    13     5    14 1   
    14     5    15 1   
    15     6    18 2   
    16     7    16 1   
    17     7    17 1   
    18     8    18 1   
@<TRIPOS>SUBSTRUCTURE
     1 K0J         1 TEMP              0 ****  ****    0 ROOT
