@<TRIPOS>MOLECULE
K0J
   18    18     1     0     0
SMALL
No Charge or Current Charge


@<TRIPOS>ATOM
      1 N1           3.0170    -0.0190     0.0200 na         1 K0J      -0.014200
      2 N3           1.1790    -1.1580    -0.0020 nc         1 K0J      -0.356000
      3 C4           2.0120     0.9280     0.0380 cd         1 K0J      -0.137000
      4 N           -1.5120    -0.1600     0.0170 ns         1 K0J      -0.491900
      5 C           -3.8010    -1.1150    -0.0010 c3         1 K0J      -0.111100
      6 O           -0.7360     1.9810     0.0570 o          1 K0J      -0.615100
      7 C1          -2.9390     0.1570     0.0230 c3         1 K0J       0.107000
      8 C3           0.8730     0.1810     0.0240 cc         1 K0J       0.134500
      9 N2           2.4820    -1.2850    -0.0040 nd         1 K0J      -0.191800
     10 H1           4.0220     0.1370     0.0230 hn         1 K0J       0.382000
     11 H2           2.1740     2.0000     0.0580 h4         1 K0J       0.186000
     12 H3          -1.2230    -1.1320    -0.0010 hn         1 K0J       0.336500
     13 H4          -3.5960    -1.7050    -0.9030 hc         1 K0J       0.043033
     14 H5          -3.5960    -1.7380     0.8780 hc         1 K0J       0.043033
     15 H6          -4.8650    -0.8520     0.0040 hc         1 K0J       0.043033
     16 H7          -3.1710     0.7410     0.9240 h1         1 K0J       0.050200
     17 H8          -3.1710     0.7740    -0.8560 h1         1 K0J       0.050200
     18 C2          -0.5000     0.7770     0.0350 c          1 K0J       0.541600
@<TRIPOS>BOND
     1     1     3 1   
     2     1     9 1   
     3     1    10 1   
     4     2     8 1   
     5     2     9 2   
     6     3     8 2   
     7     3    11 1   
     8     4     7 1   
     9     4    12 1   
    10     4    18 1   
    11     5     7 1   
    12     5    13 1   
    13     5    14 1   
    14     5    15 1   
    15     6    18 2   
    16     7    16 1   
    17     7    17 1   
    18     8    18 1   
@<TRIPOS>SUBSTRUCTURE
     1 K0J         1 TEMP              0 ****  ****    0 ROOT
