@<TRIPOS>MOLECULE
K0K
   89    94     1     0     0
SMALL
bcc


@<TRIPOS>ATOM
      1 N           48.2500    32.7270     2.8640 n          1 K0K      -0.440800
      2 CA          49.5960    33.2310     3.0290 c5         1 K0K       0.032700
      3 C           50.1160    32.9790     4.4360 c          1 K0K       0.674100
      4 O           49.3610    32.7050     5.3550 o          1 K0K      -0.552100
      5 CB          49.4670    34.7480     2.7640 c5         1 K0K      -0.087400
      6 CG          48.1350    34.8810     2.0310 c5         1 K0K      -0.089400
      7 CD          47.2870    33.8050     2.7020 c5         1 K0K       0.143900
      8 CAP         48.8330    26.3820    -0.3050 ca         1 K0K      -0.060300
      9 CAS         51.4840    34.1710     6.8970 c          1 K0K       0.718500
     10 CAT         48.5680    27.6860     0.3830 c3         1 K0K      -0.049100
     11 CAU         50.1760    35.1190     9.6750 c          1 K0K       0.924600
     12 CAW         46.5800    30.9950     2.4680 c5         1 K0K       0.079600
     13 CAX         53.4900    33.3740     5.7180 c5         1 K0K      -0.042500
     14 CAY         52.0000    33.1020     5.9480 c5         1 K0K       0.026700
     15 CBA         52.4720    33.1960     3.5850 c5         1 K0K       0.110000
     16 CBB         52.5640    32.8100     8.6340 c3         1 K0K       0.160900
     17 CBC         54.3660    32.9070     6.8330 c2         1 K0K      -0.173200
     18 CBD         49.7590    26.3210    -1.3450 ca         1 K0K      -0.119000
     19 CBF         47.3310    28.4010    -0.2120 c3         1 K0K       0.035700
     20 CBG         48.0280    31.4160     2.7250 c          1 K0K       0.732500
     21 CBI         48.1580    25.2060     0.0110 ca         1 K0K       0.047400
     22 CBJ         52.5660    32.6650    10.1580 c3         1 K0K      -0.087400
     23 CBK         45.7640    32.0870     1.8330 c2         1 K0K      -0.156200
     24 CBL         49.9980    25.1460    -2.0420 ca         1 K0K      -0.131000
     25 CBN         53.7210    32.7580     4.3410 c5         1 K0K      -0.092400
     26 CBO         46.0740    33.3680     1.9620 c2         1 K0K      -0.159200
     27 CBP         53.9710    32.6710     8.0820 c2         1 K0K      -0.165200
     28 CBR         45.8270    28.6870     2.2950 c5         1 K0K       0.105000
     29 CBS         49.3070    23.9920    -1.7030 ca         1 K0K      -0.123000
     30 CBT         47.2300    28.1930    -3.9850 c3         1 K0K      -0.178100
     31 CBU         45.9410    30.5220     3.7960 c5         1 K0K      -0.076400
     32 CBV         48.3840    24.0190    -0.6690 ca         1 K0K      -0.117000
     33 CBW         45.0110    29.3990     3.3620 c5         1 K0K      -0.094400
     34 NAI         51.8990    34.0410     8.1720 n          1 K0K      -0.429800
     35 NAK         47.4780    28.6090    -1.6250 ns         1 K0K      -0.562900
     36 NAL         51.4350    33.1630     4.6190 n          1 K0K      -0.469800
     37 NAM         46.5580    29.7800     1.6610 n          1 K0K      -0.458800
     38 OAC         49.8860    36.1380    10.3330 o          1 K0K      -0.830300
     39 OAE         49.4740    34.1130     9.4740 o          1 K0K      -0.830300
     40 OAG         48.9180    30.5860     2.8340 o          1 K0K      -0.647500
     41 OAH         46.0650    26.9740    -2.2920 o          1 K0K      -0.611100
     42 CLA         46.9800    25.2000     1.2880 cl         1 K0K      -0.120400
     43 HA          50.2430    32.7670     2.2810 h1         1 K0K       0.069700
     44 HB2         50.3110    35.1270     2.1910 hc         1 K0K       0.071200
     45 HB1         49.4350    35.3020     3.7040 hc         1 K0K       0.071200
     46 HG2         48.2480    34.6540     0.9680 hc         1 K0K       0.052200
     47 HG1         47.6980    35.8740     2.1250 hc         1 K0K       0.052200
     48 HD          46.9850    34.1750     3.6930 h1         1 K0K       0.085700
     49 HG3         52.3240    35.1240     9.8950 h1         1 K0K       0.034200
     50 HAQ         51.7610    36.0770     8.5580 h1         1 K0K       0.034200
     51 HAT         48.4300    27.5460     1.4560 hc         1 K0K       0.076200
     52 HG4         49.4350    28.3380     0.2600 hc         1 K0K       0.076200
     53 HAX         53.6300    34.4580     5.6020 hc         1 K0K       0.071700
     54 HAY         51.8610    32.0960     6.3540 h1         1 K0K       0.074700
     55 HG6         52.8770    31.1600    11.6740 hc         1 K0K       0.023367
     56 HAZ         52.2220    30.5210    10.1690 hc         1 K0K       0.023367
     57 HG5         53.9250    30.9540    10.2810 hc         1 K0K       0.023367
     58 HG7         52.2390    32.5220     2.7630 h1         1 K0K       0.040200
     59 HBA         52.5930    34.2030     3.1770 h1         1 K0K       0.040200
     60 HBB         51.9660    31.9630     8.2810 h1         1 K0K       0.060700
     61 HBC         55.4190    32.7950     6.5960 ha         1 K0K       0.107000
     62 HBD         50.3020    27.2200    -1.6090 ha         1 K0K       0.132000
     63 HBF         46.4500    27.7790    -0.0620 h1         1 K0K       0.098700
     64 HG8         53.2690    33.3680    10.6130 hc         1 K0K       0.071200
     65 HBJ         51.5730    32.9060    10.5370 hc         1 K0K       0.071200
     66 HBK         44.8690    31.7830     1.3040 ha         1 K0K       0.130000
     67 HBL         50.7220    25.1330    -2.8460 ha         1 K0K       0.129000
     68 HG9         53.7650    31.6690     4.4100 hc         1 K0K       0.047200
     69 HBN         54.6370    33.1080     3.8660 hc         1 K0K       0.047200
     70 HBO         45.4360    34.1440     1.5570 ha         1 K0K       0.134000
     71 HBP         54.7280    32.3480     8.7890 ha         1 K0K       0.114000
     72 HHA         45.2000    28.1580     1.5800 h1         1 K0K       0.052700
     73 HBR         46.5120    27.9670     2.7510 h1         1 K0K       0.052700
     74 HBS         49.4840    23.0670    -2.2360 ha         1 K0K       0.130000
     75 HHB         46.3250    28.3510    -4.5700 hc         1 K0K       0.057367
     76 HHC         47.8640    29.0730    -4.0790 hc         1 K0K       0.057367
     77 HBT         47.7560    27.3440    -4.4220 hc         1 K0K       0.057367
     78 HBU         46.7130    30.1200     4.4560 hc         1 K0K       0.078700
     79 HHD         45.4410    31.3380     4.3160 hc         1 K0K       0.078700
     80 HBV         47.8420    23.1240    -0.3940 ha         1 K0K       0.144000
     81 HBW         44.0880    29.7970     2.9360 hc         1 K0K       0.053200
     82 HHE         44.7420    28.7340     4.1810 hc         1 K0K       0.053200
     83 HAK         48.1290    29.3210    -1.9170 hn         1 K0K       0.329500
     84 CAR         47.1980    29.7510     0.4820 c          1 K0K       0.672100
     85 CAQ         51.6020    35.1310     9.0780 c3         1 K0K      -0.051000
     86 CAZ         52.9210    31.2470    10.5880 c3         1 K0K      -0.088100
     87 OAB         50.8640    35.1420     6.4850 o          1 K0K      -0.638500
     88 OAF         47.7240    30.7440    -0.0010 o          1 K0K      -0.611100
     89 CAV         46.8610    27.8610    -2.5610 c          1 K0K       0.673100
@<TRIPOS>BOND
     1     1     2 1   
     2     1     7 1   
     3     1    20 1   
     4     2     3 1   
     5     2     5 1   
     6     2    43 1   
     7     3     4 2   
     8     3    36 1   
     9     5     6 1   
    10     5    44 1   
    11     5    45 1   
    12     6     7 1   
    13     6    46 1   
    14     6    47 1   
    15     7    26 1   
    16     7    48 1   
    17     8    10 1   
    18     8    18 ar  
    19     8    21 ar  
    20     9    14 1   
    21     9    34 1   
    22     9    87 2   
    23    10    19 1   
    24    10    51 1   
    25    10    52 1   
    26    11    38 1   
    27    11    39 1   
    28    11    85 1   
    29    12    20 1   
    30    12    23 1   
    31    12    31 1   
    32    12    37 1   
    33    13    14 1   
    34    13    17 1   
    35    13    25 1   
    36    13    53 1   
    37    14    36 1   
    38    14    54 1   
    39    15    25 1   
    40    15    36 1   
    41    15    58 1   
    42    15    59 1   
    43    16    22 1   
    44    16    27 1   
    45    16    34 1   
    46    16    60 1   
    47    17    27 2   
    48    17    61 1   
    49    18    24 ar  
    50    18    62 1   
    51    19    35 1   
    52    19    63 1   
    53    19    84 1   
    54    20    40 2   
    55    21    32 ar  
    56    21    42 1   
    57    22    64 1   
    58    22    65 1   
    59    22    86 1   
    60    23    26 2   
    61    23    66 1   
    62    24    29 ar  
    63    24    67 1   
    64    25    68 1   
    65    25    69 1   
    66    26    70 1   
    67    27    71 1   
    68    28    33 1   
    69    28    37 1   
    70    28    72 1   
    71    28    73 1   
    72    29    32 ar  
    73    29    74 1   
    74    30    75 1   
    75    30    76 1   
    76    30    77 1   
    77    30    89 1   
    78    31    33 1   
    79    31    78 1   
    80    31    79 1   
    81    32    80 1   
    82    33    81 1   
    83    33    82 1   
    84    34    85 1   
    85    35    83 1   
    86    35    89 1   
    87    37    84 1   
    88    41    89 2   
    89    49    85 1   
    90    50    85 1   
    91    55    86 1   
    92    56    86 1   
    93    57    86 1   
    94    84    88 2   
@<TRIPOS>SUBSTRUCTURE
     1 K0K         1 TEMP              0 ****  ****    0 ROOT
