@<TRIPOS>MOLECULE
K0K
   89    94     1     0     0
SMALL
No Charge or Current Charge


@<TRIPOS>ATOM
      1 N           48.3150    32.9790     2.7170 n          1 K0K      -0.373800
      2 CA          49.5880    33.6240     3.1420 c5         1 K0K       0.032700
      3 C           50.2140    33.0460     4.4610 c          1 K0K       0.607100
      4 O           49.6820    32.2370     5.2140 o          1 K0K      -0.552100
      5 CB          49.1330    35.0990     3.3930 c5         1 K0K      -0.087400
      6 CG          47.9430    35.2540     2.4110 c5         1 K0K      -0.089400
      7 CD          47.1840    33.9260     2.6540 c5         1 K0K       0.143900
      8 CAP         48.1700    25.7860    -0.1630 ca         1 K0K      -0.060300
      9 CAS         51.2680    34.0030     7.3320 c          1 K0K       0.576000
     10 CAT         48.1700    27.2300     0.3390 c3         1 K0K      -0.049100
     11 CAU         50.0030    33.8880    10.3500 c          1 K0K       0.714000
     12 CAW         46.7630    31.2120     1.9550 c5         1 K0K       0.079600
     13 CAX         53.3510    34.3640     5.9690 c5         1 K0K      -0.042500
     14 CAY         52.0940    33.4620     6.1140 c5         1 K0K       0.026700
     15 CBA         52.4130    34.1540     3.7650 c5         1 K0K       0.110000
     16 CBB         53.0380    32.8030     8.7220 c3         1 K0K       0.160900
     17 CBC         54.4910    33.9930     6.9160 c2         1 K0K      -0.223200
     18 CBD         49.2820    25.3070    -0.8880 ca         1 K0K      -0.101000
     19 CBF         47.3330    28.1940    -0.5460 c3         1 K0K       0.035700
     20 CBG         48.2310    31.6120     2.3670 c          1 K0K       0.590000
     21 CBI         47.0790    24.9170     0.0740 ca         1 K0K       0.139000
     22 CBJ         53.3150    32.2880    10.1670 c3         1 K0K      -0.087400
     23 CBK         46.0660    32.3040     1.1400 c2         1 K0K      -0.206200
     24 CBL         49.3060    23.9870    -1.3700 ca         1 K0K      -0.113000
     25 CBN         53.7680    34.0550     4.5120 c5         1 K0K      -0.092400
     26 CBO         46.2910    33.5900     1.4620 c2         1 K0K      -0.209200
     27 CBP         54.3180    33.3430     8.0850 c2         1 K0K      -0.215200
     28 CBR         45.5970    29.0310     1.7800 c5         1 K0K       0.105000
     29 CBS         48.2190    23.1310    -1.1310 ca         1 K0K      -0.105000
     30 CBT         48.0340    27.5210    -4.2900 c3         1 K0K      -0.178100
     31 CBU         45.9330    30.9110     3.2450 c5         1 K0K      -0.076400
     32 CBV         47.1080    23.5970    -0.4090 ca         1 K0K      -0.099000
     33 CBW         44.8110    29.9870     2.7110 c5         1 K0K      -0.094400
     34 NAI         51.9030    33.7720     8.5850 n          1 K0K      -0.362800
     35 NAK         47.8200    28.1760    -1.9480 ns         1 K0K      -0.495900
     36 NAL         51.4580    33.6450     4.7790 n          1 K0K      -0.402800
     37 NAM         46.6330    29.9270     1.2120 n          1 K0K      -0.391800
     38 OAC         49.2540    34.6610    10.9310 o          1 K0K      -0.725000
     39 OAE         49.7500    32.7000    10.1970 o          1 K0K      -0.725000
     40 OAG         49.2120    30.8730     2.3820 o          1 K0K      -0.572000
     41 OAH         46.3630    26.6370    -2.7940 o          1 K0K      -0.611100
     42 ClA         45.6590    25.4490     0.9770 cl         1 K0K      -0.212000
     43 HA          50.3150    33.5590     2.3240 h1         1 K0K       0.069700
     44 HB2         49.9300    35.8280     3.2050 hc         1 K0K       0.071200
     45 HB1         48.8010    35.2460     4.4290 hc         1 K0K       0.071200
     46 HG2         48.2950    35.3370     1.3760 hc         1 K0K       0.052200
     47 HG1         47.3270    36.1350     2.6240 hc         1 K0K       0.052200
     48 HD          46.6280    33.9440     3.6020 h1         1 K0K       0.085700
     49 HG3         52.0710    34.4650    10.6180 h1         1 K0K       0.034200
     50 HAQ         51.1700    35.5080     9.5410 h1         1 K0K       0.034200
     51 HAT         47.8150    27.2630     1.3750 hc         1 K0K       0.076200
     52 HG4         49.1980    27.6090     0.3830 hc         1 K0K       0.076200
     53 HAX         53.0950    35.4270     6.0740 hc         1 K0K       0.071700
     54 HAY         52.3440    32.4040     6.2470 h1         1 K0K       0.074700
     55 HG6         54.2870    30.6730    11.2670 hc         1 K0K       0.023367
     56 HAZ         53.7080    30.1960     9.6580 hc         1 K0K       0.023367
     57 HG5         55.1820    31.1760     9.8220 hc         1 K0K       0.023367
     58 HG7         52.4210    33.5500     2.8480 h1         1 K0K       0.040200
     59 HBA         52.1810    35.1940     3.5020 h1         1 K0K       0.040200
     60 HBB         52.7430    31.9000     8.1730 h1         1 K0K       0.060700
     61 HBC         55.5050    34.2950     6.6450 ha         1 K0K       0.157000
     62 HBD         50.1290    25.9610    -1.0840 ha         1 K0K       0.114000
     63 HBF         46.2880    27.8630    -0.5440 h1         1 K0K       0.098700
     64 HG8         53.7970    33.0740    10.7610 hc         1 K0K       0.071200
     65 HBJ         52.3630    32.0530    10.6560 hc         1 K0K       0.071200
     66 HBK         45.4190    32.0520     0.2990 ha         1 K0K       0.180000
     67 HBL         50.1670    23.6290    -1.9300 ha         1 K0K       0.111000
     68 HG9         54.1890    33.0460     4.4230 hc         1 K0K       0.047200
     69 HBN         54.5120    34.7570     4.1210 hc         1 K0K       0.047200
     70 HBO         45.8140    34.3880     0.8900 ha         1 K0K       0.184000
     71 HBP         55.2090    33.1600     8.6860 ha         1 K0K       0.164000
     72 HHA         44.9430    28.5950     1.0130 h1         1 K0K       0.052700
     73 HBR         46.0560    28.2170     2.3560 h1         1 K0K       0.052700
     74 HBS         48.2380    22.1090    -1.5050 ha         1 K0K       0.112000
     75 HHB         47.5990    26.8860    -5.0700 hc         1 K0K       0.057367
     76 HHC         48.0440    28.5760    -4.5850 hc         1 K0K       0.057367
     77 HBT         49.0990    27.3090    -4.1440 hc         1 K0K       0.057367
     78 HBU         46.5410    30.3880     3.9920 hc         1 K0K       0.078700
     79 HHD         45.5380    31.8110     3.7290 hc         1 K0K       0.078700
     80 HBV         46.2660    22.9350    -0.2230 ha         1 K0K       0.126000
     81 HBW         44.0600    30.5550     2.1500 hc         1 K0K       0.053200
     82 HHE         44.2840    29.4520     3.5090 hc         1 K0K       0.053200
     83 HAK         48.5810    28.7980    -2.1960 hn         1 K0K       0.329500
     84 CAR         47.3510    29.6490     0.0220 c          1 K0K       0.605100
     85 CAQ         51.3430    34.4550     9.8000 c3         1 K0K      -0.051000
     86 CAZ         54.1780    31.0060    10.2280 c3         1 K0K      -0.088100
     87 OAB         50.2200    34.6360     7.2450 o          1 K0K      -0.563000
     88 OAF         48.0050    30.5290    -0.5300 o          1 K0K      -0.611100
     89 CAV         47.3160    27.3840    -2.9540 c          1 K0K       0.606100
@<TRIPOS>BOND
     1     1     2 1   
     2     1     7 1   
     3     1    20 1   
     4     2     3 1   
     5     2     5 1   
     6     2    43 1   
     7     3     4 2   
     8     3    36 1   
     9     5     6 1   
    10     5    44 1   
    11     5    45 1   
    12     6     7 1   
    13     6    46 1   
    14     6    47 1   
    15     7    26 1   
    16     7    48 1   
    17     8    10 1   
    18     8    18 ar  
    19     8    21 ar  
    20     9    14 1   
    21     9    34 1   
    22     9    87 2   
    23    10    19 1   
    24    10    51 1   
    25    10    52 1   
    26    11    38 1   
    27    11    39 1   
    28    11    85 1   
    29    12    20 1   
    30    12    23 1   
    31    12    31 1   
    32    12    37 1   
    33    13    14 1   
    34    13    17 1   
    35    13    25 1   
    36    13    53 1   
    37    14    36 1   
    38    14    54 1   
    39    15    25 1   
    40    15    36 1   
    41    15    58 1   
    42    15    59 1   
    43    16    22 1   
    44    16    27 1   
    45    16    34 1   
    46    16    60 1   
    47    17    27 2   
    48    17    61 1   
    49    18    24 ar  
    50    18    62 1   
    51    19    35 1   
    52    19    63 1   
    53    19    84 1   
    54    20    40 2   
    55    21    32 ar  
    56    21    42 1   
    57    22    64 1   
    58    22    65 1   
    59    22    86 1   
    60    23    26 2   
    61    23    66 1   
    62    24    29 ar  
    63    24    67 1   
    64    25    68 1   
    65    25    69 1   
    66    26    70 1   
    67    27    71 1   
    68    28    33 1   
    69    28    37 1   
    70    28    72 1   
    71    28    73 1   
    72    29    32 ar  
    73    29    74 1   
    74    30    75 1   
    75    30    76 1   
    76    30    77 1   
    77    30    89 1   
    78    31    33 1   
    79    31    78 1   
    80    31    79 1   
    81    32    80 1   
    82    33    81 1   
    83    33    82 1   
    84    34    85 1   
    85    35    83 1   
    86    35    89 1   
    87    37    84 1   
    88    41    89 2   
    89    49    85 1   
    90    50    85 1   
    91    55    86 1   
    92    56    86 1   
    93    57    86 1   
    94    84    88 2   
@<TRIPOS>SUBSTRUCTURE
     1 K0K         1 TEMP              0 ****  ****    0 ROOT
