@<TRIPOS>MOLECULE
K0L
   26    26     1     0     0
SMALL
bcc


@<TRIPOS>ATOM
      1 C1           0.3140     2.5000     0.3400 c3         1 K0L      -0.039300
      2 C2           1.0400     1.1940     0.1910 ca         1 K0L      -0.064300
      3 C3           2.4110     1.1850    -0.0460 ca         1 K0L      -0.189500
      4 C4           3.1210    -0.0090    -0.1820 ca         1 K0L       0.106600
      5 C5           1.0490    -1.2310     0.1660 ca         1 K0L      -0.064300
      6 N            4.4970    -0.0040    -0.3550 nv         1 K0L      -0.823200
      7 C6           2.4180    -1.2110    -0.0700 ca         1 K0L      -0.189500
      8 C7           0.3220    -2.5380     0.3050 c3         1 K0L      -0.039300
      9 C8           0.3620    -0.0210     0.2930 ca         1 K0L       0.098100
     10 O1          -0.9790    -0.0410     0.5620 os         1 K0L      -0.308900
     11 C9          -1.8060     0.0650    -0.5850 c3         1 K0L      -0.009600
     12 C           -3.2940     0.0020    -0.2120 c          1 K0L       0.934600
     13 O           -3.5980    -0.1530     0.9800 o          1 K0L      -0.824800
     14 H6          -0.2190     2.7710    -0.5750 hc         1 K0L       0.042700
     15 H6A         -0.4230     2.4660     1.1410 hc         1 K0L       0.042700
     16 H6B          1.0120     3.3090     0.5530 hc         1 K0L       0.042700
     17 H5           2.9400     2.1290    -0.1220 ha         1 K0L       0.113500
     18 HN1          4.8700     0.8340    -0.7740 hn         1 K0L       0.371800
     19 HN1A         4.8730    -0.8260    -0.7990 hn         1 K0L       0.371800
     20 H3           2.9520    -2.1500    -0.1670 ha         1 K0L       0.113500
     21 H1          -0.2060    -2.6020     1.2570 hc         1 K0L       0.042700
     22 H1A         -0.4230    -2.6780    -0.4800 hc         1 K0L       0.042700
     23 H1B          1.0160    -3.3750     0.2500 hc         1 K0L       0.042700
     24 H9          -1.6140     1.0050    -1.1160 h1         1 K0L       0.006200
     25 H9A         -1.5870    -0.7430    -1.2960 h1         1 K0L       0.006200
     26 OXT         -4.0630     0.1140    -1.1890 o          1 K0L      -0.824800
@<TRIPOS>BOND
     1     1     2 1   
     2     1    14 1   
     3     1    15 1   
     4     1    16 1   
     5     2     3 ar  
     6     2     9 ar  
     7     3     4 ar  
     8     3    17 1   
     9     4     6 1   
    10     4     7 ar  
    11     5     7 ar  
    12     5     8 1   
    13     5     9 ar  
    14     6    18 1   
    15     6    19 1   
    16     7    20 1   
    17     8    21 1   
    18     8    22 1   
    19     8    23 1   
    20     9    10 1   
    21    10    11 1   
    22    11    12 1   
    23    11    24 1   
    24    11    25 1   
    25    12    13 1   
    26    12    26 1   
@<TRIPOS>SUBSTRUCTURE
     1 K0L         1 TEMP              0 ****  ****    0 ROOT
