@<TRIPOS>MOLECULE
K0L
   26    26     1     0     0
SMALL
No Charge or Current Charge


@<TRIPOS>ATOM
      1 C1           0.3480     2.5520     0.3600 c3         1 K0L      -0.039300
      2 C2           1.0740     1.2200     0.1940 ca         1 K0L      -0.064300
      3 C3           2.4610     1.2090    -0.0550 ca         1 K0L      -0.171500
      4 C4           3.1460    -0.0050    -0.2040 ca         1 K0L       0.245000
      5 C5           1.0670    -1.2340     0.1470 ca         1 K0L      -0.064300
      6 N            4.4930    -0.0040    -0.4470 nv         1 K0L      -1.072000
      7 C6           2.4540    -1.2200    -0.1020 ca         1 K0L      -0.171500
      8 C7           0.3340    -2.5670     0.2600 c3         1 K0L      -0.039300
      9 C8           0.3770    -0.0070     0.2850 ca         1 K0L       0.098100
     10 O1          -0.9790    -0.0080     0.5230 os         1 K0L      -0.332100
     11 C9          -1.8890     0.0170    -0.6020 c3         1 K0L       0.013600
     12 C           -3.3950     0.0130    -0.1870 c          1 K0L       0.724000
     13 O           -3.6990    -0.0100     1.0000 o          1 K0L      -0.719500
     14 H6          -0.2520     2.7840    -0.5280 hc         1 K0L       0.042700
     15 H6A         -0.3250     2.5330     1.2250 hc         1 K0L       0.042700
     16 H6B          1.0500     3.3800     0.5110 hc         1 K0L       0.042700
     17 H5           3.0040     2.1470    -0.1320 ha         1 K0L       0.095500
     18 HN1          4.9780     0.8720    -0.6310 hn         1 K0L       0.427000
     19 HN1A         4.9750    -0.8740    -0.6650 hn         1 K0L       0.427000
     20 H3           2.9920    -2.1570    -0.2150 ha         1 K0L       0.095500
     21 H1          -0.3370    -2.5790     1.1270 hc         1 K0L       0.042700
     22 H1A         -0.2690    -2.7600    -0.6350 hc         1 K0L       0.042700
     23 H1B          1.0310    -3.4050     0.3770 hc         1 K0L       0.042700
     24 H9          -1.7110     0.9150    -1.2080 h1         1 K0L       0.006200
     25 H9A         -1.7160    -0.8560    -1.2440 h1         1 K0L       0.006200
     26 OXT         -4.2290     0.0340    -1.0840 o          1 K0L      -0.719500
@<TRIPOS>BOND
     1     1     2 1   
     2     1    14 1   
     3     1    15 1   
     4     1    16 1   
     5     2     3 ar  
     6     2     9 ar  
     7     3     4 ar  
     8     3    17 1   
     9     4     6 1   
    10     4     7 ar  
    11     5     7 ar  
    12     5     8 1   
    13     5     9 ar  
    14     6    18 1   
    15     6    19 1   
    16     7    20 1   
    17     8    21 1   
    18     8    22 1   
    19     8    23 1   
    20     9    10 1   
    21    10    11 1   
    22    11    12 1   
    23    11    24 1   
    24    11    25 1   
    25    12    13 1   
    26    12    26 1   
@<TRIPOS>SUBSTRUCTURE
     1 K0L         1 TEMP              0 ****  ****    0 ROOT
