@<TRIPOS>MOLECULE
K0M
   25    26     1     0     0
SMALL
bcc


@<TRIPOS>ATOM
      1 N1          -0.5290     0.0690    -0.0160 ns         1 K0M      -0.520400
      2 N3          -2.7240     0.8040    -0.0730 nc         1 K0M      -0.574800
      3 C4           0.4640    -0.8400     0.0450 c          1 K0M       0.607600
      4 C5          -1.8890    -0.2160     0.0090 cd         1 K0M       0.439200
      5 C6          -2.5690    -1.4420     0.1070 cd         1 K0M      -0.304300
      6 C7          -3.8950    -1.0720     0.0770 cc         1 K0M      -0.127300
      7 N            3.3630     1.2890    -0.1340 nc         1 K0M      -0.345300
      8 O            2.0290     1.0300    -0.1030 os         1 K0M      -0.120100
      9 C1           3.9700     0.1380    -0.0530 cd         1 K0M       0.331600
     10 C2           3.0280    -0.9210     0.0330 cd         1 K0M      -0.317600
     11 C3           1.8360    -0.2870    -0.0040 cc         1 K0M       0.216200
     12 N2          -3.9390     0.2630    -0.0310 na         1 K0M       0.116400
     13 O1           0.3040    -2.0430     0.1350 o          1 K0M      -0.563100
     14 H1          -0.2990     1.0500    -0.0900 hn         1 K0M       0.351500
     15 H2          -2.1730    -2.4370     0.1870 ha         1 K0M       0.188000
     16 H3          -4.7910    -1.6690     0.1260 h4         1 K0M       0.172000
     17 H4          -5.0990     1.6960    -1.0070 h1         1 K0M       0.056700
     18 H5          -5.9930     0.4840    -0.0780 h1         1 K0M       0.056700
     19 H6          -5.1330     1.7800     0.7650 h1         1 K0M       0.056700
     20 H7           5.8090    -0.3830     0.8820 hc         1 K0M       0.059367
     21 H8           5.7900    -0.6090    -0.8610 hc         1 K0M       0.059367
     22 H9           5.9090     1.0220    -0.1880 hc         1 K0M       0.059367
     23 H10          3.2230    -1.9770     0.1090 ha         1 K0M       0.187000
     24 C8          -5.1050     1.1090    -0.0910 c3         1 K0M       0.047600
     25 C            5.4530     0.0430    -0.0560 c3         1 K0M      -0.134400
@<TRIPOS>BOND
     1     1     3 1   
     2     1     4 1   
     3     1    14 1   
     4     2     4 2   
     5     2    12 1   
     6     3    11 1   
     7     3    13 2   
     8     4     5 1   
     9     5     6 2   
    10     5    15 1   
    11     6    12 1   
    12     6    16 1   
    13     7     8 1   
    14     7     9 2   
    15     8    11 1   
    16     9    10 1   
    17     9    25 1   
    18    10    11 2   
    19    10    23 1   
    20    12    24 1   
    21    17    24 1   
    22    18    24 1   
    23    19    24 1   
    24    20    25 1   
    25    21    25 1   
    26    22    25 1   
@<TRIPOS>SUBSTRUCTURE
     1 K0M         1 TEMP              0 ****  ****    0 ROOT
