@<TRIPOS>MOLECULE
K0M
   25    26     1     0     0
SMALL
No Charge or Current Charge


@<TRIPOS>ATOM
      1 N1          -0.5470     0.0630    -0.0090 ns         1 K0M      -0.453400
      2 N3          -2.7370     0.8850     0.0060 nc         1 K0M      -0.574800
      3 C4           0.4820    -0.8580    -0.0260 c          1 K0M       0.540600
      4 C5          -1.9040    -0.1280    -0.0120 cd         1 K0M       0.373900
      5 C6          -2.5670    -1.3740    -0.0350 cd         1 K0M      -0.221000
      6 C7          -3.9080    -1.1190    -0.0300 cc         1 K0M      -0.160000
      7 N            3.4720     1.3650     0.0140 nc         1 K0M      -0.345300
      8 O            2.0450     1.1320     0.0100 os         1 K0M      -0.075700
      9 C1           4.0040     0.1550    -0.0080 cd         1 K0M       0.266300
     10 C2           3.0340    -0.8610    -0.0260 cd         1 K0M      -0.169000
     11 C3           1.8290    -0.2270    -0.0140 cc         1 K0M       0.106500
     12 N2          -3.9750     0.2700    -0.0050 na         1 K0M       0.137800
     13 O1           0.3060    -2.0690    -0.0470 o          1 K0M      -0.563100
     14 H1          -0.2340     1.0240     0.0080 hn         1 K0M       0.351500
     15 H2          -2.1160    -2.3580    -0.0530 ha         1 K0M       0.170000
     16 H3          -4.7770    -1.7670    -0.0420 h4         1 K0M       0.154000
     17 H4          -5.2180     1.7350    -0.8710 h1         1 K0M       0.056700
     18 H5          -6.0800     0.4270    -0.0080 h1         1 K0M       0.056700
     19 H6          -5.2230     1.6940     0.9190 h1         1 K0M       0.056700
     20 H7           5.9460     0.4150     0.8840 hc         1 K0M       0.059367
     21 H8           5.7620    -1.0920    -0.0290 hc         1 K0M       0.059367
     22 H9           5.9450     0.4460    -0.8900 hc         1 K0M       0.059367
     23 H10          3.2070    -1.9310    -0.0450 ha         1 K0M       0.169000
     24 C8          -5.2000     1.0820     0.0100 c3         1 K0M       0.076900
     25 C            5.4940    -0.0290    -0.0110 c3         1 K0M      -0.134400
@<TRIPOS>BOND
     1     1     3 1   
     2     1     4 1   
     3     1    14 1   
     4     2     4 2   
     5     2    12 1   
     6     3    11 1   
     7     3    13 2   
     8     4     5 1   
     9     5     6 2   
    10     5    15 1   
    11     6    12 1   
    12     6    16 1   
    13     7     8 1   
    14     7     9 2   
    15     8    11 1   
    16     9    10 1   
    17     9    25 1   
    18    10    11 2   
    19    10    23 1   
    20    12    24 1   
    21    17    24 1   
    22    18    24 1   
    23    19    24 1   
    24    20    25 1   
    25    21    25 1   
    26    22    25 1   
@<TRIPOS>SUBSTRUCTURE
     1 K0M         1 TEMP              0 ****  ****    0 ROOT
