@<TRIPOS>MOLECULE
K0N
   43    44     1     0     0
SMALL
No Charge or Current Charge


@<TRIPOS>ATOM
      1 C01         15.1100    -9.7440   -41.8650 c3         1 K0N       0.155900
      2 C03         16.4960   -10.3230   -43.8340 ca         1 K0N       0.034100
      3 C04         17.1360   -11.3300   -44.5830 ca         1 K0N       0.162100
      4 C06         17.8640   -11.0040   -45.7360 ca         1 K0N      -0.142000
      5 C07         17.9650    -9.6650   -46.1480 ca         1 K0N      -0.051000
      6 C08         17.3440    -8.6420   -45.4040 ca         1 K0N      -0.123800
      7 C09         16.5980    -8.9760   -44.2530 ca         1 K0N      -0.103000
      8 C10         17.4600    -7.2280   -45.8720 ce         1 K0N       0.018800
      9 C11         17.7320    -6.0900   -45.1570 cf         1 K0N      -0.131900
     10 C12         17.9780    -6.1380   -43.7500 ch         1 K0N       0.289700
     11 C14         17.8080    -4.7570   -45.8470 c          1 K0N       0.629300
     12 C17         18.2260    -2.3420   -45.4200 cc         1 K0N       0.513300
     13 C20         18.3990    -0.1250   -46.2900 cc         1 K0N       0.392700
     14 C22         18.4410     1.1520   -47.1320 c3         1 K0N      -0.081300
     15 C23         19.5360     1.0220   -48.2260 c3         1 K0N      -0.083433
     16 C24         18.7660     2.4020   -46.2620 c3         1 K0N      -0.083433
     17 C25         17.0630     1.3770   -47.8120 c3         1 K0N      -0.083433
     18 N13         18.1790    -6.1260   -42.6010 n1         1 K0N      -0.457000
     19 N16         18.0970    -3.6620   -45.0610 ns         1 K0N      -0.463400
     20 N18         18.5100    -1.4570   -44.4790 nd         1 K0N      -0.389000
     21 N19         18.6110    -0.1730   -44.9800 nd         1 K0N      -0.306000
     22 O02         15.7830   -10.7010   -42.7080 os         1 K0N      -0.377100
     23 O05         17.0400   -12.6310   -44.1840 oh         1 K0N      -0.521100
     24 O15         17.6200    -4.6560   -47.0500 o          1 K0N      -0.577100
     25 S21         18.0550    -1.6700   -47.0170 ss         1 K0N      -0.207800
     26 H1          14.6170   -10.2550   -41.0280 h1         1 K0N       0.050367
     27 H2          15.8220    -9.0210   -41.4490 h1         1 K0N       0.050367
     28 H3          14.3420    -9.1990   -42.4280 h1         1 K0N       0.050367
     29 H4          18.3510   -11.7880   -46.3100 ha         1 K0N       0.141000
     30 H5          18.5340    -9.4210   -47.0430 ha         1 K0N       0.125000
     31 H6          16.0940    -8.1870   -43.7030 ha         1 K0N       0.131000
     32 H7          17.3270    -7.1330   -46.9520 ha         1 K0N       0.206000
     33 H8          20.5180     0.8380   -47.7730 hc         1 K0N       0.042811
     34 H9          19.3190     0.1950   -48.9120 hc         1 K0N       0.042811
     35 H10         19.6050     1.9400   -48.8230 hc         1 K0N       0.042811
     36 H11         19.7430     2.3000   -45.7730 hc         1 K0N       0.042811
     37 H12         18.7940     3.3110   -46.8750 hc         1 K0N       0.042811
     38 H13         18.0080     2.5490   -45.4830 hc         1 K0N       0.042811
     39 H14         16.2660     1.4480   -47.0620 hc         1 K0N       0.042811
     40 H15         17.0600     2.3050   -48.3980 hc         1 K0N       0.042811
     41 H16         16.8140     0.5540   -48.4930 hc         1 K0N       0.042811
     42 H17         18.2320    -3.8600   -44.0810 hn         1 K0N       0.353500
     43 H18         16.4900   -12.6260   -43.3690 ho         1 K0N       0.491000
@<TRIPOS>BOND
     1     1    22 1   
     2     1    26 1   
     3     1    27 1   
     4     1    28 1   
     5     2     3 ar  
     6     2     7 ar  
     7     2    22 1   
     8     3     4 ar  
     9     3    23 1   
    10     4     5 ar  
    11     4    29 1   
    12     5     6 ar  
    13     5    30 1   
    14     6     7 ar  
    15     6     8 1   
    16     7    31 1   
    17     8     9 2   
    18     8    32 1   
    19     9    10 1   
    20     9    11 1   
    21    10    18 3   
    22    11    19 1   
    23    11    24 2   
    24    12    19 1   
    25    12    20 2   
    26    12    25 1   
    27    13    14 1   
    28    13    21 2   
    29    13    25 1   
    30    14    15 1   
    31    14    16 1   
    32    14    17 1   
    33    15    33 1   
    34    15    34 1   
    35    15    35 1   
    36    16    36 1   
    37    16    37 1   
    38    16    38 1   
    39    17    39 1   
    40    17    40 1   
    41    17    41 1   
    42    19    42 1   
    43    20    21 1   
    44    23    43 1   
@<TRIPOS>SUBSTRUCTURE
     1 K0N         1 TEMP              0 ****  ****    0 ROOT
