@<TRIPOS>MOLECULE
K0N
   43    44     1     0     0
SMALL
abcg2


@<TRIPOS>ATOM
      1 C01         16.0330    -9.9940   -41.5840 c3         1 K0N       0.155900
      2 C03         16.7180   -10.2740   -43.8600 ca         1 K0N       0.034100
      3 C04         16.9670   -11.2000   -44.9010 ca         1 K0N       0.162100
      4 C06         17.3550   -10.7480   -46.1550 ca         1 K0N      -0.142000
      5 C07         17.4970    -9.3910   -46.3800 ca         1 K0N      -0.051000
      6 C08         17.2620    -8.4540   -45.3590 ca         1 K0N      -0.123800
      7 C09         16.8640    -8.9240   -44.0860 ca         1 K0N      -0.103000
      8 C10         17.4510    -7.0740   -45.6930 ce         1 K0N       0.018800
      9 C11         17.3640    -5.9340   -44.9480 cf         1 K0N      -0.131900
     10 C12         17.0430    -5.9040   -43.5690 ch         1 K0N       0.289700
     11 C14         17.6390    -4.6380   -45.6260 c          1 K0N       0.629300
     12 C17         17.8140    -2.2380   -45.2540 cc         1 K0N       0.513300
     13 C20         18.2590    -0.1360   -46.2950 cc         1 K0N       0.392700
     14 C22         18.5540     1.0280   -47.2120 c3         1 K0N      -0.081300
     15 C23         19.8670     0.7660   -47.9700 c3         1 K0N      -0.083433
     16 C24         18.6820     2.3190   -46.3960 c3         1 K0N      -0.083433
     17 C25         17.3980     1.1740   -48.2210 c3         1 K0N      -0.083433
     18 N13         16.7890    -5.8110   -42.4450 n1         1 K0N      -0.457000
     19 N16         17.5870    -3.5260   -44.8280 ns         1 K0N      -0.463400
     20 N18         17.7490    -1.2410   -44.4180 nd         1 K0N      -0.389000
     21 N19         18.0070    -0.0400   -45.0270 nd         1 K0N      -0.306000
     22 O02         16.3410   -10.8480   -42.6910 os         1 K0N      -0.377100
     23 O05         16.8260   -12.5190   -44.6780 oh         1 K0N      -0.521100
     24 O15         17.9000    -4.5560   -46.8190 o          1 K0N      -0.577100
     25 S21         18.2030    -1.7880   -46.8800 ss         1 K0N      -0.207800
     26 H1          15.7490   -10.6550   -40.7700 h1         1 K0N       0.050367
     27 H2          16.9070    -9.4040   -41.3000 h1         1 K0N       0.050367
     28 H3          15.2030    -9.3300   -41.8330 h1         1 K0N       0.050367
     29 H4          17.5390   -11.4700   -46.9390 ha         1 K0N       0.141000
     30 H5          17.8000    -9.0410   -47.3590 ha         1 K0N       0.125000
     31 H6          16.6670    -8.2330   -43.2840 ha         1 K0N       0.131000
     32 H7          17.7220    -6.8900   -46.7270 ha         1 K0N       0.206000
     33 H8          20.6990     0.6350   -47.2750 hc         1 K0N       0.042811
     34 H9          19.7970    -0.1250   -48.5960 hc         1 K0N       0.042811
     35 H10         20.0880     1.6160   -48.6180 hc         1 K0N       0.042811
     36 H11         19.4910     2.2490   -45.6680 hc         1 K0N       0.042811
     37 H12         18.8970     3.1460   -47.0750 hc         1 K0N       0.042811
     38 H13         17.7590     2.5430   -45.8610 hc         1 K0N       0.042811
     39 H14         16.4510     1.3440   -47.7060 hc         1 K0N       0.042811
     40 H15         17.5940     2.0240   -48.8770 hc         1 K0N       0.042811
     41 H16         17.2970     0.2810   -48.8410 hc         1 K0N       0.042811
     42 H17         17.3750    -3.6170   -43.8420 hn         1 K0N       0.353500
     43 H18         16.5500   -12.6580   -43.7570 ho         1 K0N       0.491000
@<TRIPOS>BOND
     1     1    22 1   
     2     1    26 1   
     3     1    27 1   
     4     1    28 1   
     5     2     3 ar  
     6     2     7 ar  
     7     2    22 1   
     8     3     4 ar  
     9     3    23 1   
    10     4     5 ar  
    11     4    29 1   
    12     5     6 ar  
    13     5    30 1   
    14     6     7 ar  
    15     6     8 1   
    16     7    31 1   
    17     8     9 2   
    18     8    32 1   
    19     9    10 1   
    20     9    11 1   
    21    10    18 3   
    22    11    19 1   
    23    11    24 2   
    24    12    19 1   
    25    12    20 2   
    26    12    25 1   
    27    13    14 1   
    28    13    21 2   
    29    13    25 1   
    30    14    15 1   
    31    14    16 1   
    32    14    17 1   
    33    15    33 1   
    34    15    34 1   
    35    15    35 1   
    36    16    36 1   
    37    16    37 1   
    38    16    38 1   
    39    17    39 1   
    40    17    40 1   
    41    17    41 1   
    42    19    42 1   
    43    20    21 1   
    44    23    43 1   
@<TRIPOS>SUBSTRUCTURE
     1 K0N         1 TEMP              0 ****  ****    0 ROOT
