@<TRIPOS>MOLECULE
K0P
   31    32     1     0     0
SMALL
bcc


@<TRIPOS>ATOM
      1 N1          -0.4500     0.8080     0.0800 ns         1 K0P      -0.566900
      2 N3           3.6780     0.0550    -1.1730 nc         1 K0P      -0.524800
      3 C4           0.6680     1.7340     0.1600 c3         1 K0P       0.190300
      4 C5          -1.7220     1.2260     0.0140 c          1 K0P       0.681700
      5 C6          -2.7640     0.1580    -0.0630 ca         1 K0P      -0.269900
      6 C7          -4.0490     0.4340     0.3940 ca         1 K0P      -0.042000
      7 C8          -5.0160    -0.5510     0.3090 ca         1 K0P      -0.256300
      8 C10         -2.5290    -1.0970    -0.6180 ca         1 K0P       0.423200
      9 N            3.8380    -0.0620     0.1420 na         1 K0P       0.111400
     10 C            4.8350    -2.2920     0.4750 c3         1 K0P      -0.111100
     11 O           -2.0350     2.4090     0.0110 o          1 K0P      -0.603100
     12 C1           4.9720    -0.7930     0.6730 c3         1 K0P       0.058300
     13 C11          2.5430     0.7100    -1.3310 cd         1 K0P       0.323200
     14 C2           2.8290     0.4960     0.8300 cc         1 K0P      -0.122300
     15 C3           1.9520     1.0240    -0.0940 cd         1 K0P      -0.308600
     16 C9          -4.6670    -1.7720    -0.2490 ca         1 K0P       0.417200
     17 N2          -3.4540    -2.0420    -0.7120 nb         1 K0P      -0.671000
     18 H1          -0.2510    -0.1650     0.2480 hn         1 K0P       0.318500
     19 H2           0.5220     2.5210    -0.5810 h1         1 K0P       0.057700
     20 H3           0.6900     2.2200     1.1390 h1         1 K0P       0.057700
     21 H4          -4.2850     1.4030     0.8150 ha         1 K0P       0.159000
     22 H5          -6.0230    -0.3800     0.6640 ha         1 K0P       0.146000
     23 H6          -1.5570    -1.3480    -1.0290 h4         1 K0P       0.020100
     24 H7           4.7620    -2.5430    -0.5820 hc         1 K0P       0.050700
     25 H8           5.7090    -2.7990     0.8830 hc         1 K0P       0.050700
     26 H9           3.9510    -2.6760     0.9850 hc         1 K0P       0.050700
     27 H10          5.8730    -0.4180     0.1890 h1         1 K0P       0.062200
     28 H11          5.0470    -0.5480     1.7320 h1         1 K0P       0.062200
     29 H12          2.1800     0.9490    -2.3200 h4         1 K0P       0.042100
     30 H13          2.7960     0.4840     1.9090 h4         1 K0P       0.172000
     31 H14         -5.4040    -2.5630    -0.3310 h4         1 K0P       0.021100
@<TRIPOS>BOND
     1     1     3 1   
     2     1     4 1   
     3     1    18 1   
     4     2     9 1   
     5     2    13 2   
     6     3    15 1   
     7     3    19 1   
     8     3    20 1   
     9     4     5 1   
    10     4    11 2   
    11     5     6 ar  
    12     5     8 ar  
    13     6     7 ar  
    14     6    21 1   
    15     7    16 ar  
    16     7    22 1   
    17     8    17 ar  
    18     8    23 1   
    19     9    12 1   
    20     9    14 1   
    21    10    12 1   
    22    10    24 1   
    23    10    25 1   
    24    10    26 1   
    25    12    27 1   
    26    12    28 1   
    27    13    15 1   
    28    13    29 1   
    29    14    15 2   
    30    14    30 1   
    31    16    17 ar  
    32    16    31 1   
@<TRIPOS>SUBSTRUCTURE
     1 K0P         1 TEMP              0 ****  ****    0 ROOT
