@<TRIPOS>MOLECULE
K0P
   31    32     1     0     0
SMALL
No Charge or Current Charge


@<TRIPOS>ATOM
      1 N1          -0.3840     0.9320    -0.0300 ns         1 K0P      -0.499900
      2 N3           3.9930     0.5680    -1.1370 nc         1 K0P      -0.524800
      3 C4           0.7060     1.8970    -0.0310 c3         1 K0P       0.190300
      4 C5          -1.7130     1.2660     0.0900 c          1 K0P       0.614700
      5 C6          -2.7080     0.1400     0.0750 ca         1 K0P      -0.204600
      6 C7          -4.0890     0.4070     0.1920 ca         1 K0P      -0.024000
      7 C8          -4.9860    -0.6720     0.1740 ca         1 K0P      -0.173000
      8 C10         -2.3020    -1.2030    -0.0530 ca         1 K0P       0.357900
      9 N            3.8080    -0.0240     0.0960 na         1 K0P       0.132800
     10 C            4.4880    -2.4280     0.3820 c3         1 K0P      -0.111100
     11 O           -2.0610     2.4330     0.2030 o          1 K0P      -0.603100
     12 C1           4.8220    -0.9460     0.6380 c3         1 K0P       0.087600
     13 C11          2.9030     1.2980    -1.2760 cd         1 K0P       0.257900
     14 C2           2.6150     0.3360     0.7130 cc         1 K0P      -0.155000
     15 C3           2.0250     1.1930    -0.1750 cd         1 K0P      -0.243300
     16 C9          -4.4860    -1.9760     0.0420 ca         1 K0P       0.351900
     17 N2          -3.1660    -2.2450    -0.0700 nb         1 K0P      -0.671000
     18 H1          -0.1480    -0.0470    -0.1210 hn         1 K0P       0.318500
     19 H2           0.5650     2.6010    -0.8610 h1         1 K0P       0.057700
     20 H3           0.6910     2.4610     0.9110 h1         1 K0P       0.057700
     21 H4          -4.4610     1.4250     0.2930 ha         1 K0P       0.141000
     22 H5          -6.0560    -0.5070     0.2610 ha         1 K0P       0.128000
     23 H6          -1.2510    -1.4740    -0.1460 h4         1 K0P       0.020100
     24 H7           4.4190    -2.6290    -0.6940 hc         1 K0P       0.050700
     25 H8           5.2680    -3.0730     0.8040 hc         1 K0P       0.050700
     26 H9           3.5310    -2.6950     0.8470 hc         1 K0P       0.050700
     27 H10          5.7940    -0.7090     0.1870 h1         1 K0P       0.062200
     28 H11          4.9040    -0.7730     1.7180 h1         1 K0P       0.062200
     29 H12          2.7730     1.8880    -2.1750 h4         1 K0P       0.042100
     30 H13          2.3070    -0.0330     1.6840 h4         1 K0P       0.154000
     31 H14         -5.1610    -2.8310     0.0260 h4         1 K0P       0.021100
@<TRIPOS>BOND
     1     1     3 1   
     2     1     4 1   
     3     1    18 1   
     4     2     9 1   
     5     2    13 2   
     6     3    15 1   
     7     3    19 1   
     8     3    20 1   
     9     4     5 1   
    10     4    11 2   
    11     5     6 ar  
    12     5     8 ar  
    13     6     7 ar  
    14     6    21 1   
    15     7    16 ar  
    16     7    22 1   
    17     8    17 ar  
    18     8    23 1   
    19     9    12 1   
    20     9    14 1   
    21    10    12 1   
    22    10    24 1   
    23    10    25 1   
    24    10    26 1   
    25    12    27 1   
    26    12    28 1   
    27    13    15 1   
    28    13    29 1   
    29    14    15 2   
    30    14    30 1   
    31    16    17 ar  
    32    16    31 1   
@<TRIPOS>SUBSTRUCTURE
     1 K0P         1 TEMP              0 ****  ****    0 ROOT
