@<TRIPOS>MOLECULE
K0Q
   40    42     1     0     0
SMALL
bcc


@<TRIPOS>ATOM
      1 N           -3.7800    -0.8060     0.2380 n          1 K0Q      -0.321000
      2 CA          -2.6470    -1.5340     0.7620 c3         1 K0Q       0.007000
      3 C           -1.3770    -1.1770     0.0010 c          1 K0Q       0.660100
      4 O           -1.4120    -0.8410    -1.1720 o          1 K0Q      -0.590100
      5 OAY         -2.8860     1.0870     1.1090 o          1 K0Q      -0.612500
      6 CAT         -3.7880     0.5500     0.4720 c          1 K0Q       0.700700
      7 CAU         -4.9250     1.2630    -0.0810 cc         1 K0Q       0.021900
      8 OAZ         -4.9120     2.5790     0.1900 oh         1 K0Q      -0.460100
      9 CAO         -5.8730     0.6170    -0.8080 cd         1 K0Q      -0.173000
     10 CAR         -5.7710    -0.7790    -1.0310 cd         1 K0Q      -0.195000
     11 CAS         -4.7250    -1.4520    -0.5060 cc         1 K0Q      -0.011400
     12 NAV         -0.2480    -1.3200     0.7010 ns         1 K0Q      -0.568900
     13 CAN          1.0650    -1.1390     0.1160 c3         1 K0Q       0.104000
     14 CAM          2.1410    -1.1870     1.1960 c3         1 K0Q      -0.015200
     15 C1           3.5020    -0.9650     0.6260 cc         1 K0Q      -0.145400
     16 C2           4.0590     0.2870     0.2030 ca         1 K0Q      -0.094800
     17 C9           3.5910     1.6060     0.2080 ca         1 K0Q      -0.077000
     18 C10          4.4080     2.6070    -0.2800 ca         1 K0Q      -0.157000
     19 C11          5.6900     2.3180    -0.7770 ca         1 K0Q      -0.108000
     20 C12          6.1790     1.0260    -0.7950 ca         1 K0Q      -0.148000
     21 C3           5.3510     0.0190    -0.3010 ca         1 K0Q      -0.046200
     22 N6           5.5600    -1.3240    -0.1870 na         1 K0Q      -0.173400
     23 C5           4.4550    -1.9090     0.3670 cd         1 K0Q      -0.104100
     24 H1          -2.5410    -1.3530     1.8310 h1         1 K0Q       0.072700
     25 H2          -2.8330    -2.6010     0.6330 h1         1 K0Q       0.072700
     26 H3          -5.6790     3.0060    -0.2080 ho         1 K0Q       0.422000
     27 H4          -6.7100     1.1650    -1.2250 ha         1 K0Q       0.135000
     28 H5          -6.5160    -1.3040    -1.6090 ha         1 K0Q       0.149000
     29 H6          -4.5820    -2.5140    -0.6370 h4         1 K0Q       0.151000
     30 H7          -0.3050    -1.6010     1.6670 hn         1 K0Q       0.312500
     31 H8           1.2590    -1.9160    -0.6290 h1         1 K0Q       0.058200
     32 H9           1.1010    -0.1800    -0.4050 h1         1 K0Q       0.058200
     33 H10          1.9230    -0.4280     1.9540 hc         1 K0Q       0.046200
     34 H11          2.1060    -2.1560     1.7020 hc         1 K0Q       0.046200
     35 H12          2.6050     1.8420     0.5900 ha         1 K0Q       0.137000
     36 H13          4.0590     3.6320    -0.2800 ha         1 K0Q       0.131000
     37 H14          6.3070     3.1250    -1.1530 ha         1 K0Q       0.128000
     38 H15          7.1670     0.8050    -1.1780 ha         1 K0Q       0.130000
     39 H16          6.3950    -1.8140    -0.4600 hn         1 K0Q       0.299700
     40 H17          4.4280    -2.9740     0.5390 h4         1 K0Q       0.160000
@<TRIPOS>BOND
     1     1     2 1   
     2     1     6 1   
     3     1    11 1   
     4     2     3 1   
     5     2    24 1   
     6     2    25 1   
     7     3     4 2   
     8     3    12 1   
     9     5     6 2   
    10     6     7 1   
    11     7     8 1   
    12     7     9 2   
    13     8    26 1   
    14     9    10 1   
    15     9    27 1   
    16    10    11 2   
    17    10    28 1   
    18    11    29 1   
    19    12    13 1   
    20    12    30 1   
    21    13    14 1   
    22    13    31 1   
    23    13    32 1   
    24    14    15 1   
    25    14    33 1   
    26    14    34 1   
    27    15    16 1   
    28    15    23 2   
    29    16    17 ar  
    30    16    21 ar  
    31    17    18 ar  
    32    17    35 1   
    33    18    19 ar  
    34    18    36 1   
    35    19    20 ar  
    36    19    37 1   
    37    20    21 ar  
    38    20    38 1   
    39    21    22 1   
    40    22    23 1   
    41    22    39 1   
    42    23    40 1   
@<TRIPOS>SUBSTRUCTURE
     1 K0Q         1 TEMP              0 ****  ****    0 ROOT
