@<TRIPOS>MOLECULE
K0Q
   40    42     1     0     0
SMALL
No Charge or Current Charge


@<TRIPOS>ATOM
      1 N           -3.8960    -0.5540     0.3200 n          1 K0Q      -0.254000
      2 CA          -2.6140    -0.9880     0.9460 c3         1 K0Q       0.007000
      3 C           -1.3510    -0.7060     0.1070 c          1 K0Q       0.593100
      4 O           -1.3780    -0.2230    -1.0190 o          1 K0Q      -0.590100
      5 OAY         -3.5260     1.6400     0.9570 o          1 K0Q      -0.537000
      6 CAT         -4.2430     0.8180     0.3890 c          1 K0Q       0.558200
      7 CAU         -5.5460     1.1660    -0.2790 cc         1 K0Q       0.021900
      8 OAZ         -5.9030     2.4760    -0.2240 oh         1 K0Q      -0.499100
      9 CAO         -6.3390     0.2270    -0.9070 cd         1 K0Q      -0.223000
     10 CAR         -5.9020    -1.1420    -0.9290 cd         1 K0Q      -0.245000
     11 CAS         -4.7110    -1.4890    -0.3250 cc         1 K0Q      -0.061400
     12 NAV         -0.1660    -1.0530     0.7180 ns         1 K0Q      -0.501900
     13 CAN          1.1560    -0.8780     0.1100 c3         1 K0Q       0.104000
     14 CAM          2.2930    -1.2920     1.0630 c3         1 K0Q      -0.015200
     15 C1           3.6580    -1.1110     0.4530 cc         1 K0Q      -0.145400
     16 C2           4.3210     0.1350     0.1860 ca         1 K0Q      -0.094800
     17 C9           3.9090     1.4540     0.4300 ca         1 K0Q      -0.059000
     18 C10          4.7840     2.4970     0.0590 ca         1 K0Q      -0.139000
     19 C11          6.0330     2.2050    -0.5370 ca         1 K0Q      -0.090000
     20 C12          6.4180     0.8660    -0.7640 ca         1 K0Q      -0.130000
     21 C3           5.5290    -0.1500    -0.3860 ca         1 K0Q      -0.046200
     22 N6           5.7020    -1.5160    -0.5090 na         1 K0Q      -0.223700
     23 C5           4.5280    -2.1070     0.0190 cd         1 K0Q      -0.154100
     24 H1          -2.4910    -0.4890     1.9150 h1         1 K0Q       0.072700
     25 H2          -2.6430    -2.0660     1.1430 h1         1 K0Q       0.072700
     26 H3          -6.7610     2.5710    -0.6900 ho         1 K0Q       0.461000
     27 H4          -7.2760     0.5100    -1.3810 ha         1 K0Q       0.185000
     28 H5          -6.5040    -1.9050    -1.4200 ha         1 K0Q       0.199000
     29 H6          -4.3040    -2.4960    -0.2990 h4         1 K0Q       0.201000
     30 H7          -0.2250    -1.4510     1.6490 hn         1 K0Q       0.312500
     31 H8           1.2090    -1.4860    -0.8040 h1         1 K0Q       0.058200
     32 H9           1.2790     0.1750    -0.1740 h1         1 K0Q       0.058200
     33 H10          2.2230    -0.7000     1.9840 hc         1 K0Q       0.046200
     34 H11          2.1540    -2.3410     1.3530 hc         1 K0Q       0.046200
     35 H12          2.9490     1.6680     0.8920 ha         1 K0Q       0.119000
     36 H13          4.4950     3.5320     0.2330 ha         1 K0Q       0.113000
     37 H14          6.7020     3.0150    -0.8200 ha         1 K0Q       0.110000
     38 H15          7.3770     0.6310    -1.2180 ha         1 K0Q       0.112000
     39 H16          6.5070    -1.9970    -0.9000 hn         1 K0Q       0.350000
     40 H17          4.3940    -3.1860     0.0430 h4         1 K0Q       0.210000
@<TRIPOS>BOND
     1     1     2 1   
     2     1     6 1   
     3     1    11 1   
     4     2     3 1   
     5     2    24 1   
     6     2    25 1   
     7     3     4 2   
     8     3    12 1   
     9     5     6 2   
    10     6     7 1   
    11     7     8 1   
    12     7     9 2   
    13     8    26 1   
    14     9    10 1   
    15     9    27 1   
    16    10    11 2   
    17    10    28 1   
    18    11    29 1   
    19    12    13 1   
    20    12    30 1   
    21    13    14 1   
    22    13    31 1   
    23    13    32 1   
    24    14    15 1   
    25    14    33 1   
    26    14    34 1   
    27    15    16 1   
    28    15    23 2   
    29    16    17 ar  
    30    16    21 ar  
    31    17    18 ar  
    32    17    35 1   
    33    18    19 ar  
    34    18    36 1   
    35    19    20 ar  
    36    19    37 1   
    37    20    21 ar  
    38    20    38 1   
    39    21    22 1   
    40    22    23 1   
    41    22    39 1   
    42    23    40 1   
@<TRIPOS>SUBSTRUCTURE
     1 K0Q         1 TEMP              0 ****  ****    0 ROOT
