@<TRIPOS>MOLECULE
K0R
   41    44     1     0     0
SMALL
No Charge or Current Charge


@<TRIPOS>ATOM
      1 N3          -9.2210   -35.5040    37.8700 na         1 K0R       0.180800
      2 C7         -11.3380   -35.2640    38.3690 cc         1 K0R       0.020000
      3 C8         -10.5980   -37.7000    37.8890 c          1 K0R       0.665700
      4 C10        -10.6510   -34.0350    38.3770 cc         1 K0R       0.269300
      5 C13        -14.6150   -42.7390    38.1220 cc         1 K0R      -0.269100
      6 C15        -11.7210   -40.6010    37.7610 cc         1 K0R      -0.211000
      7 C20         -7.9000   -36.0420    37.5080 c3         1 K0R       0.070900
      8 C21        -11.3110   -32.7220    38.6930 c3         1 K0R      -0.120400
      9 C22        -18.2630   -42.0740    39.0140 ca         1 K0R      -0.086000
     10 C24        -18.4620   -44.8550    38.6970 ca         1 K0R      -0.117000
     11 C26        -19.5990   -44.1090    39.0450 ca         1 K0R      -0.102000
     12 C1         -10.4150   -36.2280    38.0400 cd         1 K0R      -0.222600
     13 C2         -14.3870   -40.5250    38.3600 cc         1 K0R       0.425500
     14 N4         -13.7160   -39.3800    38.3600 nd         1 K0R      -0.703000
     15 N5          -9.3740   -34.1400    38.0810 nd         1 K0R      -0.500800
     16 N6         -15.6560   -40.7650    38.6080 nd         1 K0R      -0.275600
     17 N9         -13.7210   -41.6980    38.0600 na         1 K0R      -0.084400
     18 C11        -15.8090   -42.1360    38.4640 cd         1 K0R       0.143400
     19 C12        -12.4300   -39.3870    38.0750 cc         1 K0R       0.516900
     20 N14        -11.8760   -38.1360    38.1150 ns         1 K0R      -0.475400
     21 C16        -12.3700   -41.8230    37.7450 cd         1 K0R      -0.051000
     22 O17         -9.6790   -38.4440    37.5890 o          1 K0R      -0.572100
     23 C18        -17.1100   -42.8130    38.6640 ca         1 K0R      -0.025800
     24 Cl19       -13.0420   -35.4060    38.7270 cl         1 K0R      -0.139000
     25 C23        -17.2260   -44.2120    38.5080 ca         1 K0R      -0.086000
     26 C25        -19.4980   -42.7190    39.2030 ca         1 K0R      -0.117000
     27 H29        -10.6660   -40.5760    37.5310 ha         1 K0R       0.170000
     28 H33         -7.1650   -35.2300    37.4510 h1         1 K0R       0.069367
     29 H32         -7.5790   -36.7640    38.2670 h1         1 K0R       0.069367
     30 H31         -7.9620   -36.5390    36.5330 h1         1 K0R       0.069367
     31 H34        -10.5950   -31.8940    38.6420 hc         1 K0R       0.055700
     32 H36        -12.1190   -32.5130    37.9830 hc         1 K0R       0.055700
     33 H35        -11.7380   -32.7360    39.7020 hc         1 K0R       0.055700
     34 H37        -18.2100   -40.9950    39.1430 ha         1 K0R       0.122000
     35 H39        -18.5370   -45.9330    38.5740 ha         1 K0R       0.112500
     36 H41        -20.5550   -44.6080    39.1910 ha         1 K0R       0.112000
     37 H28        -12.5220   -37.4030    38.3530 hn         1 K0R       0.355500
     38 H30        -11.9460   -42.7970    37.5250 h4         1 K0R       0.150000
     39 H38        -16.3610   -44.8130    38.2390 ha         1 K0R       0.122000
     40 H40        -20.3780   -42.1380    39.4730 ha         1 K0R       0.112500
     41 H27        -14.3500   -43.7720    37.9290 h4         1 K0R       0.234000
@<TRIPOS>BOND
     1     1     7 1   
     2     1    12 1   
     3     1    15 1   
     4     2     4 1   
     5     2    12 2   
     6     2    24 1   
     7     3    12 1   
     8     3    20 1   
     9     3    22 2   
    10     4     8 1   
    11     4    15 2   
    12     5    17 1   
    13     5    18 2   
    14     5    41 1   
    15     6    19 1   
    16     6    21 2   
    17     6    27 1   
    18     7    28 1   
    19     7    29 1   
    20     7    30 1   
    21     8    31 1   
    22     8    32 1   
    23     8    33 1   
    24     9    23 ar  
    25     9    26 ar  
    26     9    34 1   
    27    10    11 ar  
    28    10    25 ar  
    29    10    35 1   
    30    11    26 ar  
    31    11    36 1   
    32    13    14 1   
    33    13    16 2   
    34    13    17 1   
    35    14    19 2   
    36    16    18 1   
    37    17    21 1   
    38    18    23 1   
    39    19    20 1   
    40    20    37 1   
    41    21    38 1   
    42    23    25 ar  
    43    25    39 1   
    44    26    40 1   
@<TRIPOS>SUBSTRUCTURE
     1 K0R         1 TEMP              0 ****  ****    0 ROOT
