@<TRIPOS>MOLECULE
K0R
   41    44     1     0     0
SMALL
abcg2


@<TRIPOS>ATOM
      1 N3          -9.5330   -35.5510    37.4710 na         1 K0R       0.180800
      2 C7         -11.1590   -35.2080    38.8730 cc         1 K0R       0.020000
      3 C8         -10.6990   -37.6560    38.0720 c          1 K0R       0.665700
      4 C10        -10.4900   -34.0120    38.5900 cc         1 K0R       0.269300
      5 C13        -14.5480   -42.8000    38.4920 cc         1 K0R      -0.269100
      6 C15        -11.6860   -40.5130    38.3470 cc         1 K0R      -0.211000
      7 C20         -8.5660   -36.0960    36.5390 c3         1 K0R       0.070900
      8 C21        -10.7670   -32.6560    39.1290 c3         1 K0R      -0.120400
      9 C22        -18.2660   -42.1260    38.4250 ca         1 K0R      -0.086000
     10 C24        -18.4270   -44.8820    38.6760 ca         1 K0R      -0.117000
     11 C26        -19.5920   -44.1290    38.5940 ca         1 K0R      -0.102000
     12 C1         -10.5210   -36.1900    38.1370 cd         1 K0R      -0.222600
     13 C2         -14.4010   -40.5900    38.3540 cc         1 K0R       0.425500
     14 N4         -13.8090   -39.3970    38.2780 nd         1 K0R      -0.703000
     15 N5          -9.5160   -34.2550    37.7300 nd         1 K0R      -0.500800
     16 N6         -15.6840   -40.8500    38.3730 nd         1 K0R      -0.275600
     17 N9         -13.6580   -41.7620    38.4270 na         1 K0R      -0.084400
     18 C11        -15.7880   -42.2090    38.4590 cd         1 K0R       0.143400
     19 C12        -12.5030   -39.3490    38.2720 cc         1 K0R       0.516900
     20 N14        -11.9930   -38.0620    38.2040 ns         1 K0R      -0.475400
     21 C16        -12.3060   -41.7160    38.4250 cd         1 K0R      -0.051000
     22 O17         -9.7540   -38.4000    37.9150 o          1 K0R      -0.572100
     23 C18        -17.0910   -42.8740    38.5060 ca         1 K0R      -0.025800
     24 CL19       -12.4670   -35.3750    39.9600 cl         1 K0R      -0.139000
     25 C23        -17.1880   -44.2620    38.6330 ca         1 K0R      -0.086000
     26 C25        -19.5050   -42.7490    38.4690 ca         1 K0R      -0.117000
     27 H29        -10.6120   -40.4660    38.3440 ha         1 K0R       0.170000
     28 H33         -8.1170   -35.2580    36.0160 h1         1 K0R       0.069367
     29 H32         -7.7920   -36.6550    37.0600 h1         1 K0R       0.069367
     30 H31         -9.0530   -36.7450    35.8160 h1         1 K0R       0.069367
     31 H34        -10.1020   -31.9230    38.6770 hc         1 K0R       0.055700
     32 H36        -11.7950   -32.3520    38.9290 hc         1 K0R       0.055700
     33 H35        -10.6230   -32.6230    40.2100 hc         1 K0R       0.055700
     34 H37        -18.2080   -41.0510    38.3270 ha         1 K0R       0.122000
     35 H39        -18.4820   -45.9590    38.7750 ha         1 K0R       0.112500
     36 H41        -20.5580   -44.6150    38.6290 ha         1 K0R       0.112000
     37 H28        -12.7160   -37.3550    38.1990 hn         1 K0R       0.355500
     38 H30        -11.7750   -42.6540    38.4870 h4         1 K0R       0.150000
     39 H38        -16.2940   -44.8690    38.7010 ha         1 K0R       0.122000
     40 H40        -20.4060   -42.1530    38.4050 ha         1 K0R       0.112500
     41 H27        -14.2220   -43.8240    38.5540 h4         1 K0R       0.234000
@<TRIPOS>BOND
     1     1     7 1   
     2     1    12 1   
     3     1    15 1   
     4     2     4 1   
     5     2    12 2   
     6     2    24 1   
     7     3    12 1   
     8     3    20 1   
     9     3    22 2   
    10     4     8 1   
    11     4    15 2   
    12     5    17 1   
    13     5    18 2   
    14     5    41 1   
    15     6    19 1   
    16     6    21 2   
    17     6    27 1   
    18     7    28 1   
    19     7    29 1   
    20     7    30 1   
    21     8    31 1   
    22     8    32 1   
    23     8    33 1   
    24     9    23 ar  
    25     9    26 ar  
    26     9    34 1   
    27    10    11 ar  
    28    10    25 ar  
    29    10    35 1   
    30    11    26 ar  
    31    11    36 1   
    32    13    14 1   
    33    13    16 2   
    34    13    17 1   
    35    14    19 2   
    36    16    18 1   
    37    17    21 1   
    38    18    23 1   
    39    19    20 1   
    40    20    37 1   
    41    21    38 1   
    42    23    25 ar  
    43    25    39 1   
    44    26    40 1   
@<TRIPOS>SUBSTRUCTURE
     1 K0R         1 TEMP              0 ****  ****    0 ROOT
