@<TRIPOS>MOLECULE
K0S
   29    30     1     0     0
SMALL
No Charge or Current Charge


@<TRIPOS>ATOM
      1 N1         -19.9440    29.2250   -58.7120 nc         1 K0S      -0.395000
      2 N3         -21.8430    34.4020   -56.2030 nb         1 K0S      -0.615000
      3 C4         -20.7670    29.8310   -57.8660 cd         1 K0S       0.515300
      4 C5         -21.4500    32.0400   -56.9120 c          1 K0S       0.512600
      5 C6         -21.1210    33.5460   -56.9890 ca         1 K0S       0.294500
      6 C7         -20.1020    34.0420   -57.8470 ca         1 K0S      -0.135000
      7 C8         -19.8310    35.4200   -57.8910 ca         1 K0S      -0.075000
      8 C10        -21.5770    35.7270   -56.2510 ca         1 K0S       0.336900
      9 N          -20.1400    27.8530   -58.7360 nc         1 K0S      -0.306000
     10 C          -23.1610    24.2100   -58.4760 c3         1 K0S      -0.091100
     11 O          -22.3260    31.6070   -56.1720 o          1 K0S      -0.530100
     12 C1         -22.7240    25.6790   -58.6390 c3         1 K0S      -0.070400
     13 C3         -21.1040    27.4950   -57.8990 cd         1 K0S       0.379700
     14 C9         -20.5850    36.2750   -57.0760 ca         1 K0S      -0.139000
     15 N2         -20.7030    31.1960   -57.7220 ns         1 K0S      -0.470400
     16 S          -21.8710    28.7770   -57.0060 ss         1 K0S      -0.195800
     17 H1         -19.5180    33.3800   -58.4780 ha         1 K0S       0.129000
     18 H2         -19.0530    35.8150   -58.5430 ha         1 K0S       0.128000
     19 H3         -22.1780    36.3670   -55.6060 h4         1 K0S       0.031100
     20 H4         -24.0120    23.9900   -59.1320 hc         1 K0S       0.033700
     21 H5         -22.3420    23.5300   -58.7370 hc         1 K0S       0.033700
     22 H6         -23.4640    24.0080   -57.4420 hc         1 K0S       0.033700
     23 H7         -22.4610    25.8600   -59.6890 hc         1 K0S       0.054200
     24 H8         -23.5740    26.3330   -58.4060 hc         1 K0S       0.054200
     25 H9         -21.7880    25.8700   -56.6910 hc         1 K0S       0.057200
     26 H10        -20.6800    25.3950   -57.9680 hc         1 K0S       0.057200
     27 H11        -20.4090    37.3480   -57.0780 ha         1 K0S       0.131000
     28 H12        -20.0100    31.6580   -58.2900 hn         1 K0S       0.346500
     29 C2         -21.5250    26.0570   -57.7390 c3         1 K0S      -0.105700
@<TRIPOS>BOND
     1     1     3 2   
     2     1     9 1   
     3     2     5 ar  
     4     2     8 ar  
     5     3    15 1   
     6     3    16 1   
     7     4     5 1   
     8     4    11 2   
     9     4    15 1   
    10     5     6 ar  
    11     6     7 ar  
    12     6    17 1   
    13     7    14 ar  
    14     7    18 1   
    15     8    14 ar  
    16     8    19 1   
    17     9    13 2   
    18    10    12 1   
    19    10    20 1   
    20    10    21 1   
    21    10    22 1   
    22    12    23 1   
    23    12    24 1   
    24    12    29 1   
    25    13    16 1   
    26    13    29 1   
    27    14    27 1   
    28    15    28 1   
    29    25    29 1   
    30    26    29 1   
@<TRIPOS>SUBSTRUCTURE
     1 K0S         1 TEMP              0 ****  ****    0 ROOT
