@<TRIPOS>MOLECULE
K0S
   29    30     1     0     0
SMALL
abcg2


@<TRIPOS>ATOM
      1 N1         -20.9420    29.4050   -59.2460 nc         1 K0S      -0.395000
      2 N3         -21.6800    34.3430   -56.1680 nb         1 K0S      -0.615000
      3 C4         -21.1760    30.0130   -58.1190 cd         1 K0S       0.515300
      4 C5         -21.2340    32.0910   -56.8560 c          1 K0S       0.512600
      5 C6         -20.9200    33.5570   -56.9390 ca         1 K0S       0.294500
      6 C7         -19.8860    34.0460   -57.7340 ca         1 K0S      -0.135000
      7 C8         -19.6390    35.4140   -57.7330 ca         1 K0S      -0.075000
      8 C10        -21.4420    35.6520   -56.1860 ca         1 K0S       0.336900
      9 N          -21.1930    28.0590   -59.1720 nc         1 K0S      -0.306000
     10 C          -22.7850    23.9930   -58.3670 c3         1 K0S      -0.091100
     11 O          -21.6790    31.5650   -55.8470 o          1 K0S      -0.530100
     12 C1         -22.4650    25.4210   -58.7990 c3         1 K0S      -0.070400
     13 C3         -21.6050    27.6710   -58.0050 cd         1 K0S       0.379700
     14 C9         -20.4340    36.2350   -56.9500 ca         1 K0S      -0.139000
     15 N2         -20.9850    31.3700   -57.9930 ns         1 K0S      -0.470400
     16 S          -21.7390    28.9750   -56.8510 ss         1 K0S      -0.195800
     17 H1         -19.2690    33.3820   -58.3220 ha         1 K0S       0.129000
     18 H2         -18.8360    35.8240   -58.3320 ha         1 K0S       0.128000
     19 H3         -22.0810    36.2660   -55.5610 h4         1 K0S       0.031100
     20 H4         -23.1630    23.4070   -59.2060 hc         1 K0S       0.033700
     21 H5         -21.8950    23.4920   -57.9800 hc         1 K0S       0.033700
     22 H6         -23.5430    23.9820   -57.5790 hc         1 K0S       0.033700
     23 H7         -21.7310    25.4110   -59.6070 hc         1 K0S       0.054200
     24 H8         -23.3630    25.9020   -59.1970 hc         1 K0S       0.054200
     25 H9         -22.6520    26.2630   -56.8160 hc         1 K0S       0.057200
     26 H10        -21.0210    25.7910   -57.2340 hc         1 K0S       0.057200
     27 H11        -20.2820    37.3060   -56.9220 ha         1 K0S       0.131000
     28 H12        -20.6950    31.8440   -58.8380 hn         1 K0S       0.346500
     29 C2         -21.9280    26.2570   -57.6350 c3         1 K0S      -0.105700
@<TRIPOS>BOND
     1     1     3 2   
     2     1     9 1   
     3     2     5 ar  
     4     2     8 ar  
     5     3    15 1   
     6     3    16 1   
     7     4     5 1   
     8     4    11 2   
     9     4    15 1   
    10     5     6 ar  
    11     6     7 ar  
    12     6    17 1   
    13     7    14 ar  
    14     7    18 1   
    15     8    14 ar  
    16     8    19 1   
    17     9    13 2   
    18    10    12 1   
    19    10    20 1   
    20    10    21 1   
    21    10    22 1   
    22    12    23 1   
    23    12    24 1   
    24    12    29 1   
    25    13    16 1   
    26    13    29 1   
    27    14    27 1   
    28    15    28 1   
    29    25    29 1   
    30    26    29 1   
@<TRIPOS>SUBSTRUCTURE
     1 K0S         1 TEMP              0 ****  ****    0 ROOT
