@<TRIPOS>MOLECULE
K0U
   27    27     1     0     0
SMALL
bcc


@<TRIPOS>ATOM
      1 C11          6.0600     6.4140    17.2570 c3         1 K0U      -0.116600
      2 C13          7.4860     5.9770    17.6430 c3         1 K0U      -0.036700
      3 C15          7.8260     6.3350    19.0870 c3         1 K0U      -0.083100
      4 C1           0.8120     7.3770    17.9430 ca         1 K0U      -0.008600
      5 C2           1.8640     7.8760    17.1860 ca         1 K0U       0.047400
      6 C3           3.3680     6.2220    18.1050 ca         1 K0U       0.077900
      7 C4           2.2940     5.7360    18.8590 ca         1 K0U       0.010400
      8 C5           3.1240     7.3070    17.2650 ca         1 K0U      -0.116000
      9 C6           1.0350     6.2980    18.7830 ca         1 K0U      -0.107000
     10 S9           4.9180     5.4330    18.2860 ss         1 K0U      -0.204000
     11 CL10         2.5350     4.3920    19.9170 cl         1 K0U      -0.110400
     12 C12          5.7870     6.1940    15.7450 c          1 K0U       0.930600
     13 C14          8.5080     6.6190    16.7060 c3         1 K0U      -0.083100
     14 O16          5.7870     5.0180    15.3490 o          1 K0U      -0.810300
     15 O17          5.6190     7.2290    15.0700 o          1 K0U      -0.810300
     16 H20          5.9380     7.4670    17.5290 h1         1 K0U       0.055700
     17 H21          7.5540     4.8900    17.5220 hc         1 K0U       0.063700
     18 H25          8.8470     6.0300    19.3230 hc         1 K0U       0.026533
     19 H27          7.7580     7.4140    19.2390 hc         1 K0U       0.026533
     20 H26          7.1650     5.8550    19.8080 hc         1 K0U       0.026533
     21 H18          3.9110     7.7090    16.6420 ha         1 K0U       0.206000
     22 H19          0.2250     5.8990    19.3780 ha         1 K0U       0.144000
     23 H23          9.5180     6.3520    17.0190 hc         1 K0U       0.026533
     24 H22          8.3900     6.2940    15.6730 hc         1 K0U       0.026533
     25 H24          8.4310     7.7080    16.7310 hc         1 K0U       0.026533
     26 CL7         -0.7600     8.0680    17.8520 cl         1 K0U      -0.115400
     27 CL8          1.6180     9.2080    16.1230 cl         1 K0U      -0.095400
@<TRIPOS>BOND
     1     1     2 1   
     2     1    10 1   
     3     1    12 1   
     4     1    16 1   
     5     2     3 1   
     6     2    13 1   
     7     2    17 1   
     8     3    18 1   
     9     3    19 1   
    10     3    20 1   
    11     4     5 ar  
    12     4     9 ar  
    13     4    26 1   
    14     5     8 ar  
    15     5    27 1   
    16     6     7 ar  
    17     6     8 ar  
    18     6    10 1   
    19     7     9 ar  
    20     7    11 1   
    21     8    21 1   
    22     9    22 1   
    23    12    14 1   
    24    12    15 1   
    25    13    23 1   
    26    13    24 1   
    27    13    25 1   
@<TRIPOS>SUBSTRUCTURE
     1 K0U         1 TEMP              0 ****  ****    0 ROOT
