@<TRIPOS>MOLECULE
K0U
   27    27     1     0     0
SMALL
No Charge or Current Charge


@<TRIPOS>ATOM
      1 C11          6.0760     6.3950    17.4200 c3         1 K0U      -0.068700
      2 C13          7.5640     6.0010    17.6780 c3         1 K0U      -0.036700
      3 C15          8.1180     6.6210    18.9860 c3         1 K0U      -0.083100
      4 C1           0.7670     7.3440    17.7020 ca         1 K0U       0.083000
      5 C2           1.8870     8.1840    17.5310 ca         1 K0U       0.139000
      6 C3           3.3480     6.4210    18.3830 ca         1 K0U      -0.049000
      7 C4           2.2210     5.5890    18.5620 ca         1 K0U       0.102000
      8 C5           3.1690     7.7240    17.8730 ca         1 K0U      -0.098000
      9 C6           0.9390     6.0490    18.2200 ca         1 K0U      -0.089000
     10 S9           4.9870     5.8370    18.8230 ss         1 K0U      -0.125000
     11 Cl10         2.3910     3.9560    19.2070 cl         1 K0U      -0.202000
     12 C12          5.5250     5.8600    16.0720 c          1 K0U       0.720000
     13 C14          8.4810     6.3770    16.4880 c3         1 K0U      -0.083100
     14 O16          5.5410     4.6530    15.8640 o          1 K0U      -0.705000
     15 O17          5.0820     6.6720    15.2720 o          1 K0U      -0.705000
     16 H20          6.0290     7.4890    17.3750 h1         1 K0U       0.055700
     17 H21          7.6070     4.9100    17.7890 hc         1 K0U       0.063700
     18 H25          9.1730     6.3540    19.1240 hc         1 K0U       0.026533
     19 H27          8.0430     7.7150    18.9610 hc         1 K0U       0.026533
     20 H26          7.5740     6.2580    19.8660 hc         1 K0U       0.026533
     21 H18          4.0180     8.3900    17.7460 ha         1 K0U       0.188000
     22 H19          0.0770     5.4020    18.3560 ha         1 K0U       0.126000
     23 H23          9.5220     6.1020    16.6980 hc         1 K0U       0.026533
     24 H22          8.1830     5.8530    15.5720 hc         1 K0U       0.026533
     25 H24          8.4450     7.4560    16.2940 hc         1 K0U       0.026533
     26 Cl7         -0.8580     7.8890    17.2840 cl         1 K0U      -0.207000
     27 Cl8          1.7080     9.8200    16.8940 cl         1 K0U      -0.187000
@<TRIPOS>BOND
     1     1     2 1   
     2     1    10 1   
     3     1    12 1   
     4     1    16 1   
     5     2     3 1   
     6     2    13 1   
     7     2    17 1   
     8     3    18 1   
     9     3    19 1   
    10     3    20 1   
    11     4     5 ar  
    12     4     9 ar  
    13     4    26 1   
    14     5     8 ar  
    15     5    27 1   
    16     6     7 ar  
    17     6     8 ar  
    18     6    10 1   
    19     7     9 ar  
    20     7    11 1   
    21     8    21 1   
    22     9    22 1   
    23    12    14 1   
    24    12    15 1   
    25    13    23 1   
    26    13    24 1   
    27    13    25 1   
@<TRIPOS>SUBSTRUCTURE
     1 K0U         1 TEMP              0 ****  ****    0 ROOT
