@<TRIPOS>MOLECULE
K0V
   39    39     1     0     0
SMALL
No Charge or Current Charge


@<TRIPOS>ATOM
      1 N1          -2.6860    -0.3930    -0.0870 ns         1 K0V      -0.519900
      2 C4           0.0520    -0.9650     0.0970 c6         1 K0V       0.108500
      3 C5           0.5000     1.5440     0.0460 c6         1 K0V       0.108500
      4 C6           1.9510     1.2740    -0.4120 c6         1 K0V      -0.084400
      5 C7          -1.8510     0.7040    -0.1230 c          1 K0V       0.665100
      6 C8          -4.1530    -0.4050    -0.0410 c3         1 K0V       0.148400
      7 C10         -4.7460     0.2680    -1.3040 c3         1 K0V      -0.103767
      8 N           -0.4680     0.4200    -0.1610 n          1 K0V      -0.440800
      9 C            6.1310    -0.7230     0.7230 c3         1 K0V       0.151900
     10 O            4.7250    -0.4710     0.9020 os         1 K0V      -0.448100
     11 C1           3.9400    -0.3610    -0.2190 c          1 K0V       0.592100
     12 C11         -4.5890    -1.8890    -0.0100 c3         1 K0V      -0.103767
     13 C2           2.4540    -0.0910     0.0900 c6         1 K0V      -0.118700
     14 C3           1.5110    -1.2270    -0.3470 c6         1 K0V      -0.084400
     15 C9          -4.6650     0.2970     1.2430 c3         1 K0V      -0.103767
     16 O1           4.3650    -0.4650    -1.3620 o          1 K0V      -0.481000
     17 O2          -2.2690     1.8520    -0.1260 o          1 K0V      -0.643100
     18 H1          -2.2220    -1.2890    -0.0950 hn         1 K0V       0.300500
     19 H2          -0.0250    -1.1590     1.1770 h1         1 K0V       0.048450
     20 H3          -0.5780    -1.7080    -0.4100 h1         1 K0V       0.048450
     21 H4           0.5110     1.7840     1.1190 h1         1 K0V       0.048450
     22 H5           0.1420     2.4430    -0.4760 h1         1 K0V       0.048450
     23 H6           1.9930     1.2990    -1.5100 hc         1 K0V       0.062700
     24 H7           2.6070     2.0800    -0.0560 hc         1 K0V       0.062700
     25 H8          -4.3500    -0.1960    -2.2150 hc         1 K0V       0.043811
     26 H9          -5.8380     0.1670    -1.3210 hc         1 K0V       0.043811
     27 H10         -4.5150     1.3380    -1.3400 hc         1 K0V       0.043811
     28 H11          6.6040     0.0840     0.1490 h1         1 K0V       0.048367
     29 H12          6.6340    -0.7870     1.6970 h1         1 K0V       0.048367
     30 H13          6.2950    -1.6700     0.1930 h1         1 K0V       0.048367
     31 H14         -4.1810    -2.3990     0.8710 hc         1 K0V       0.043811
     32 H15         -5.6820    -1.9760     0.0260 hc         1 K0V       0.043811
     33 H16         -4.2380    -2.4200    -0.9030 hc         1 K0V       0.043811
     34 H17          2.4020    -0.0540     1.1870 hc         1 K0V       0.072700
     35 H18          1.8540    -2.1890     0.0590 hc         1 K0V       0.062700
     36 H19          1.5410    -1.3240    -1.4420 hc         1 K0V       0.062700
     37 H20         -4.4330     1.3670     1.2390 hc         1 K0V       0.043811
     38 H21         -5.7540     0.1970     1.3310 hc         1 K0V       0.043811
     39 H22         -4.2110    -0.1470     2.1370 hc         1 K0V       0.043811
@<TRIPOS>BOND
     1     1     5 1   
     2     1     6 1   
     3     1    18 1   
     4     2     8 1   
     5     2    14 1   
     6     2    19 1   
     7     2    20 1   
     8     3     4 1   
     9     3     8 1   
    10     3    21 1   
    11     3    22 1   
    12     4    13 1   
    13     4    23 1   
    14     4    24 1   
    15     5     8 1   
    16     5    17 2   
    17     6     7 1   
    18     6    12 1   
    19     6    15 1   
    20     7    25 1   
    21     7    26 1   
    22     7    27 1   
    23     9    10 1   
    24     9    28 1   
    25     9    29 1   
    26     9    30 1   
    27    10    11 1   
    28    11    13 1   
    29    11    16 2   
    30    12    31 1   
    31    12    32 1   
    32    12    33 1   
    33    13    14 1   
    34    13    34 1   
    35    14    35 1   
    36    14    36 1   
    37    15    37 1   
    38    15    38 1   
    39    15    39 1   
@<TRIPOS>SUBSTRUCTURE
     1 K0V         1 TEMP              0 ****  ****    0 ROOT
