@<TRIPOS>MOLECULE
K0V
   39    39     1     0     0
SMALL
bcc


@<TRIPOS>ATOM
      1 N1          -2.5520    -0.4600     0.1500 ns         1 K0V      -0.586900
      2 C4           0.1640    -0.8050     0.8230 c6         1 K0V       0.108500
      3 C5           0.3870     1.6170     0.7320 c6         1 K0V       0.108500
      4 C6           1.7300     1.5120     0.0250 c6         1 K0V      -0.084400
      5 C7          -1.7490     0.6350     0.0730 c          1 K0V       0.799100
      6 C8          -3.9670    -0.5000    -0.2310 c3         1 K0V       0.148400
      7 C10         -4.1480    -0.1680    -1.7120 c3         1 K0V      -0.103767
      8 N           -0.4490     0.4610     0.4710 n          1 K0V      -0.507800
      9 C            5.7210    -1.2510    -0.3650 c3         1 K0V       0.128700
     10 O            4.4490    -0.9640     0.2160 os         1 K0V      -0.424900
     11 C1           3.7630     0.0600    -0.2750 c          1 K0V       0.641100
     12 C11         -4.4150    -1.9430     0.0060 c3         1 K0V      -0.103767
     13 C2           2.4340     0.2220     0.4220 c6         1 K0V      -0.118700
     14 C3           1.5180    -0.9740     0.1420 c6         1 K0V      -0.084400
     15 C9          -4.8160     0.4320     0.6360 c3         1 K0V      -0.103767
     16 O1           4.1670     0.7580    -1.1720 o          1 K0V      -0.530000
     17 O2          -2.1470     1.7180    -0.3490 o          1 K0V      -0.643100
     18 H1          -2.2770    -1.1940     0.7810 hn         1 K0V       0.300500
     19 H2           0.2880    -0.8800     1.9100 h1         1 K0V       0.048450
     20 H3          -0.4620    -1.6370     0.5110 h1         1 K0V       0.048450
     21 H4           0.5530     1.7070     1.8130 h1         1 K0V       0.048450
     22 H5          -0.1320     2.5150     0.4110 h1         1 K0V       0.048450
     23 H6           1.5750     1.5420    -1.0560 hc         1 K0V       0.062700
     24 H7           2.3350     2.3800     0.2920 hc         1 K0V       0.062700
     25 H8          -3.5290    -0.8180    -2.3330 hc         1 K0V       0.043811
     26 H9          -5.1890    -0.3200    -2.0010 hc         1 K0V       0.043811
     27 H10         -3.8880     0.8650    -1.9300 hc         1 K0V       0.043811
     28 H11          6.4090    -0.4130    -0.2520 h1         1 K0V       0.048367
     29 H12          6.1080    -2.1090     0.1750 h1         1 K0V       0.048367
     30 H13          5.6290    -1.5000    -1.4220 h1         1 K0V       0.048367
     31 H14         -4.3050    -2.2270     1.0560 hc         1 K0V       0.043811
     32 H15         -5.4650    -2.0610    -0.2580 hc         1 K0V       0.043811
     33 H16         -3.8350    -2.6430    -0.5980 hc         1 K0V       0.043811
     34 H17          2.6350     0.2450     1.5010 hc         1 K0V       0.072700
     35 H18          1.9650    -1.9030     0.5000 hc         1 K0V       0.062700
     36 H19          1.3650    -1.0770    -0.9360 hc         1 K0V       0.062700
     37 H20         -4.5630     1.4780     0.4700 hc         1 K0V       0.043811
     38 H21         -5.8750     0.3020     0.4060 hc         1 K0V       0.043811
     39 H22         -4.6760     0.2090     1.6960 hc         1 K0V       0.043811
@<TRIPOS>BOND
     1     1     5 1   
     2     1     6 1   
     3     1    18 1   
     4     2     8 1   
     5     2    14 1   
     6     2    19 1   
     7     2    20 1   
     8     3     4 1   
     9     3     8 1   
    10     3    21 1   
    11     3    22 1   
    12     4    13 1   
    13     4    23 1   
    14     4    24 1   
    15     5     8 1   
    16     5    17 2   
    17     6     7 1   
    18     6    12 1   
    19     6    15 1   
    20     7    25 1   
    21     7    26 1   
    22     7    27 1   
    23     9    10 1   
    24     9    28 1   
    25     9    29 1   
    26     9    30 1   
    27    10    11 1   
    28    11    13 1   
    29    11    16 2   
    30    12    31 1   
    31    12    32 1   
    32    12    33 1   
    33    13    14 1   
    34    13    34 1   
    35    14    35 1   
    36    14    36 1   
    37    15    37 1   
    38    15    38 1   
    39    15    39 1   
@<TRIPOS>SUBSTRUCTURE
     1 K0V         1 TEMP              0 ****  ****    0 ROOT
