@<TRIPOS>MOLECULE
K0X
   68    70     1     0     0
SMALL
bcc


@<TRIPOS>ATOM
      1 C14         -4.8630    -3.5940    -0.0810 c3         1 K0X      -0.069400
      2 C15         -5.3800    -2.2600     0.4460 c3         1 K0X      -0.079400
      3 C16         -6.8850    -2.0830     0.3020 c3         1 K0X      -0.100400
      4 C17         -7.3880    -0.7390     0.8280 c3         1 K0X       0.098000
      5 C13         -3.3530    -3.7590     0.0810 c3         1 K0X      -0.095400
      6 C12         -2.5570    -2.7520    -0.7410 c3         1 K0X       0.228800
      7 C10         -0.2310    -1.9680    -0.3930 ca         1 K0X       0.970900
      8 C27          4.9730     1.3830     1.0080 c3         1 K0X       0.147300
      9 C28          6.2290     0.7480     0.4650 ca         1 K0X      -0.125300
     10 C29          6.2360     0.1110    -0.7740 ca         1 K0X      -0.093000
     11 C19         -5.6680     1.0140     0.6670 c          1 K0X       0.625100
     12 C22          1.9280    -1.4140    -0.0830 ca         1 K0X       0.534200
     13 C23          1.6240    -0.0670     0.0640 ca         1 K0X      -0.544200
     14 N01         -5.6310     2.3520    -1.5040 n8         1 K0X      -0.923800
     15 C02         -4.9250     1.9360    -0.3140 c3         1 K0X       0.094500
     16 C03         -4.3510     3.1610     0.4060 c3         1 K0X      -0.059400
     17 C04         -3.2140     3.8390    -0.3630 c3         1 K0X      -0.069400
     18 C05         -1.8140     3.3440    -0.0040 c3         1 K0X      -0.095400
     19 C06         -1.5990     1.8590    -0.2610 c3         1 K0X       0.227800
     20 N07         -0.2150     1.5040    -0.0430 nu         1 K0X      -0.854900
     21 C08          0.2400     0.2510    -0.1040 ca         1 K0X       0.798200
     22 N09         -0.6560    -0.7110    -0.3170 nb         1 K0X      -0.879000
     23 N11         -1.1350    -2.9400    -0.5840 nu         1 K0X      -0.863900
     24 N18         -6.7510     0.3890     0.1800 ns         1 K0X      -0.574900
     25 O20         -5.2390     0.8280     1.7990 o          1 K0X      -0.596100
     26 N21          1.0510    -2.3720    -0.3070 nb         1 K0X      -0.822000
     27 O25          2.4560     2.1500     0.0250 o          1 K0X      -0.651100
     28 N26          3.8180     0.5390     0.8220 ns         1 K0X      -0.572900
     29 C30          7.3970    -0.4500    -1.2840 ca         1 K0X      -0.169500
     30 C31          8.5570    -0.3640    -0.5360 ca         1 K0X       0.136900
     31 F32          9.6850    -0.9100    -1.0240 f          1 K0X      -0.143900
     32 C33          8.5900     0.2590     0.6950 ca         1 K0X      -0.169500
     33 C34          7.4150     0.8100     1.1890 ca         1 K0X      -0.093000
     34 H141        -5.3650    -4.4120     0.4420 hc         1 K0X       0.039200
     35 H142        -5.1310    -3.7010    -1.1390 hc         1 K0X       0.039200
     36 H152        -5.0980    -2.1540     1.4990 hc         1 K0X       0.048700
     37 H151        -4.8820    -1.4470    -0.0870 hc         1 K0X       0.048700
     38 H162        -7.1700    -2.1920    -0.7500 hc         1 K0X       0.041700
     39 H161        -7.4110    -2.8760     0.8440 hc         1 K0X       0.041700
     40 H172        -8.4660    -0.6610     0.6760 h1         1 K0X       0.061200
     41 H171        -7.2090    -0.6640     1.9000 h1         1 K0X       0.061200
     42 H131        -3.0800    -3.6570     1.1360 hc         1 K0X       0.047700
     43 H132        -3.0670    -4.7710    -0.2190 hc         1 K0X       0.047700
     44 H121        -2.8370    -2.8400    -1.7980 h1         1 K0X       0.057200
     45 H122        -2.7860    -1.7330    -0.4380 h1         1 K0X       0.057200
     46 H272         5.1110     1.6150     2.0680 h1         1 K0X       0.065200
     47 H271         4.7830     2.3310     0.5050 h1         1 K0X       0.065200
     48 H291         5.3250     0.0460    -1.3550 ha         1 K0X       0.138000
     49 H221         2.9620    -1.7440    -0.0390 h4         1 K0X       0.010100
     50 H011        -5.7760     1.6010    -2.1640 hn         1 K0X       0.355800
     51 H012        -6.5240     2.7790    -1.2940 hn         1 K0X       0.355800
     52 H021        -4.0900     1.3140    -0.6570 h1         1 K0X       0.079700
     53 H032        -5.1710     3.8710     0.5570 hc         1 K0X       0.056700
     54 H031        -4.0040     2.8820     1.4010 hc         1 K0X       0.056700
     55 H042        -3.3850     3.7310    -1.4380 hc         1 K0X       0.050700
     56 H041        -3.2410     4.9130    -0.1650 hc         1 K0X       0.050700
     57 H051        -1.0870     3.9160    -0.5900 hc         1 K0X       0.047700
     58 H052        -1.6060     3.5600     1.0480 hc         1 K0X       0.047700
     59 H062        -2.2280     1.2640     0.4040 h1         1 K0X       0.053200
     60 H061        -1.9000     1.6100    -1.2850 h1         1 K0X       0.053200
     61 H071         0.4850     2.2320    -0.0130 hn         1 K0X       0.478800
     62 H111        -0.7620    -3.8690    -0.6970 hn         1 K0X       0.447800
     63 H181        -7.0140     0.5740    -0.7740 hn         1 K0X       0.298500
     64 H261         3.8780    -0.3920     1.2010 hn         1 K0X       0.316500
     65 H301         7.3990    -0.9460    -2.2450 ha         1 K0X       0.150500
     66 H331         9.5090     0.3120     1.2630 ha         1 K0X       0.150500
     67 H341         7.4280     1.2940     2.1580 ha         1 K0X       0.138000
     68 C24          2.6490     0.9630     0.2970 c          1 K0X       0.721700
@<TRIPOS>BOND
     1     1     2 1   
     2     1     5 1   
     3     1    34 1   
     4     1    35 1   
     5     2     3 1   
     6     2    36 1   
     7     2    37 1   
     8     3     4 1   
     9     3    38 1   
    10     3    39 1   
    11     4    24 1   
    12     4    40 1   
    13     4    41 1   
    14     5     6 1   
    15     5    42 1   
    16     5    43 1   
    17     6    23 1   
    18     6    44 1   
    19     6    45 1   
    20     7    22 ar  
    21     7    23 1   
    22     7    26 ar  
    23     8     9 1   
    24     8    28 1   
    25     8    46 1   
    26     8    47 1   
    27     9    10 ar  
    28     9    33 ar  
    29    10    29 ar  
    30    10    48 1   
    31    11    15 1   
    32    11    24 1   
    33    11    25 2   
    34    12    13 ar  
    35    12    26 ar  
    36    12    49 1   
    37    13    21 ar  
    38    13    68 1   
    39    14    15 1   
    40    14    50 1   
    41    14    51 1   
    42    15    16 1   
    43    15    52 1   
    44    16    17 1   
    45    16    53 1   
    46    16    54 1   
    47    17    18 1   
    48    17    55 1   
    49    17    56 1   
    50    18    19 1   
    51    18    57 1   
    52    18    58 1   
    53    19    20 1   
    54    19    59 1   
    55    19    60 1   
    56    20    21 1   
    57    20    61 1   
    58    21    22 ar  
    59    23    62 1   
    60    24    63 1   
    61    27    68 2   
    62    28    64 1   
    63    28    68 1   
    64    29    30 ar  
    65    29    65 1   
    66    30    31 1   
    67    30    32 ar  
    68    32    33 ar  
    69    32    66 1   
    70    33    67 1   
@<TRIPOS>SUBSTRUCTURE
     1 K0X         1 TEMP              0 ****  ****    0 ROOT
