@<TRIPOS>MOLECULE
K0X
   68    70     1     0     0
SMALL
No Charge or Current Charge


@<TRIPOS>ATOM
      1 C14         -4.9390    -3.7280    -0.0990 c3         1 K0X      -0.069400
      2 C15         -5.4980    -2.4090     0.4910 c3         1 K0X      -0.079400
      3 C16         -7.0150    -2.1980     0.2730 c3         1 K0X      -0.100400
      4 C17         -7.5450    -0.8440     0.8110 c3         1 K0X       0.098000
      5 C13         -3.4140    -3.9200     0.1230 c3         1 K0X      -0.095400
      6 C12         -2.5530    -2.8000    -0.5040 c3         1 K0X       0.228800
      7 C10         -0.1720    -1.9530    -0.2030 ca         1 K0X       0.444900
      8 C27          5.1330     1.6070    -0.0020 c3         1 K0X       0.147300
      9 C28          6.4380     0.8290     0.0440 ca         1 K0X      -0.125300
     10 C29          7.0840     0.4580    -1.1520 ca         1 K0X      -0.075000
     11 C19         -5.7620     0.9520     0.7320 c          1 K0X       0.558100
     12 C22          2.0230    -1.3440    -0.1480 ca         1 K0X       0.205900
     13 C23          1.6540     0.0180    -0.1290 ca         1 K0X      -0.413600
     14 N01         -5.8810     2.5630    -1.3480 n8         1 K0X      -1.034200
     15 C02         -5.0570     2.0120    -0.2090 c3         1 K0X       0.094500
     16 C03         -4.4300     3.2000     0.5860 c3         1 K0X      -0.059400
     17 C04         -3.2990     3.9720    -0.1570 c3         1 K0X      -0.069400
     18 C05         -1.8560     3.4440     0.0820 c3         1 K0X      -0.095400
     19 C06         -1.6330     1.9700    -0.3090 c3         1 K0X       0.227800
     20 N07         -0.2350     1.5620    -0.0980 nu         1 K0X      -0.910100
     21 C08          0.2760     0.2800    -0.1470 ca         1 K0X       0.469900
     22 N09         -0.6320    -0.6990    -0.1890 nb         1 K0X      -0.353000
     23 N11         -1.1180    -2.9660    -0.2120 nu         1 K0X      -0.919100
     24 N18         -6.8670     0.3090     0.1990 ns         1 K0X      -0.507900
     25 O20         -5.3720     0.7050     1.8660 o          1 K0X      -0.596100
     26 N21          1.1100    -2.3330    -0.1800 nb         1 K0X      -0.296000
     27 O25          2.3910     2.2970    -0.1010 o          1 K0X      -0.651100
     28 N26          3.9890     0.7020    -0.0430 ns         1 K0X      -0.505900
     29 C30          8.2890    -0.2670    -1.1080 ca         1 K0X      -0.151500
     30 C31          8.8460    -0.6230     0.1290 ca         1 K0X       0.172000
     31 F32         10.0020    -1.3200     0.1710 f          1 K0X      -0.179000
     32 C33          8.2070    -0.2600     1.3250 ca         1 K0X      -0.151500
     33 C34          7.0030     0.4650     1.2830 ca         1 K0X      -0.075000
     34 H141        -5.4710    -4.5750     0.3510 hc         1 K0X       0.039200
     35 H142        -5.1510    -3.7600    -1.1760 hc         1 K0X       0.039200
     36 H152        -5.2770    -2.3680     1.5650 hc         1 K0X       0.048700
     37 H151        -4.9750    -1.5700     0.0230 hc         1 K0X       0.048700
     38 H162        -7.2360    -2.2620    -0.8000 hc         1 K0X       0.041700
     39 H161        -7.5660    -3.0120     0.7590 hc         1 K0X       0.041700
     40 H172        -8.6200    -0.7690     0.6000 h1         1 K0X       0.061200
     41 H171        -7.4200    -0.8090     1.9020 h1         1 K0X       0.061200
     42 H131        -3.2150    -3.9660     1.2010 hc         1 K0X       0.047700
     43 H132        -3.1120    -4.8860    -0.3000 hc         1 K0X       0.047700
     44 H121        -2.7210    -2.7580    -1.5890 h1         1 K0X       0.057200
     45 H122        -2.8890    -1.8450    -0.0820 h1         1 K0X       0.057200
     46 H272         5.0490     2.2510     0.8840 h1         1 K0X       0.065200
     47 H271         5.1130     2.2510    -0.8920 h1         1 K0X       0.065200
     48 H291         6.6540     0.7300    -2.1140 ha         1 K0X       0.120000
     49 H221         3.0620    -1.6660    -0.1350 h4         1 K0X       0.010100
     50 H011        -6.1430     1.8170    -2.0040 hn         1 K0X       0.411000
     51 H012        -6.7770     2.9240    -0.9930 hn         1 K0X       0.411000
     52 H021        -4.2390     1.4450    -0.6700 h1         1 K0X       0.079700
     53 H032        -5.2300     3.9030     0.8480 hc         1 K0X       0.056700
     54 H031        -4.0250     2.8460     1.5420 hc         1 K0X       0.056700
     55 H042        -3.5060     3.9960    -1.2340 hc         1 K0X       0.050700
     56 H041        -3.3260     5.0170     0.1760 hc         1 K0X       0.050700
     57 H051        -1.1600     4.0730    -0.4860 hc         1 K0X       0.047700
     58 H052        -1.6020     3.5730     1.1420 hc         1 K0X       0.047700
     59 H062        -2.2870     1.3460     0.3150 h1         1 K0X       0.053200
     60 H061        -1.9160     1.8180    -1.3600 h1         1 K0X       0.053200
     61 H071         0.4970     2.2810    -0.1040 hn         1 K0X       0.534000
     62 H111        -0.7330    -3.9100    -0.2420 hn         1 K0X       0.503000
     63 H181        -7.1490     0.5850    -0.7330 hn         1 K0X       0.298500
     64 H261         4.1650    -0.2930    -0.0350 hn         1 K0X       0.316500
     65 H301         8.7890    -0.5540    -2.0300 ha         1 K0X       0.132500
     66 H331         8.6440    -0.5410     2.2800 ha         1 K0X       0.132500
     67 H341         6.5090     0.7430     2.2120 ha         1 K0X       0.120000
     68 C24          2.6810     1.1080    -0.0890 c          1 K0X       0.654700
@<TRIPOS>BOND
     1     1     2 1   
     2     1     5 1   
     3     1    34 1   
     4     1    35 1   
     5     2     3 1   
     6     2    36 1   
     7     2    37 1   
     8     3     4 1   
     9     3    38 1   
    10     3    39 1   
    11     4    24 1   
    12     4    40 1   
    13     4    41 1   
    14     5     6 1   
    15     5    42 1   
    16     5    43 1   
    17     6    23 1   
    18     6    44 1   
    19     6    45 1   
    20     7    22 ar  
    21     7    23 1   
    22     7    26 ar  
    23     8     9 1   
    24     8    28 1   
    25     8    46 1   
    26     8    47 1   
    27     9    10 ar  
    28     9    33 ar  
    29    10    29 ar  
    30    10    48 1   
    31    11    15 1   
    32    11    24 1   
    33    11    25 2   
    34    12    13 ar  
    35    12    26 ar  
    36    12    49 1   
    37    13    21 ar  
    38    13    68 1   
    39    14    15 1   
    40    14    50 1   
    41    14    51 1   
    42    15    16 1   
    43    15    52 1   
    44    16    17 1   
    45    16    53 1   
    46    16    54 1   
    47    17    18 1   
    48    17    55 1   
    49    17    56 1   
    50    18    19 1   
    51    18    57 1   
    52    18    58 1   
    53    19    20 1   
    54    19    59 1   
    55    19    60 1   
    56    20    21 1   
    57    20    61 1   
    58    21    22 ar  
    59    23    62 1   
    60    24    63 1   
    61    27    68 2   
    62    28    64 1   
    63    28    68 1   
    64    29    30 ar  
    65    29    65 1   
    66    30    31 1   
    67    30    32 ar  
    68    32    33 ar  
    69    32    66 1   
    70    33    67 1   
@<TRIPOS>SUBSTRUCTURE
     1 K0X         1 TEMP              0 ****  ****    0 ROOT
