@<TRIPOS>MOLECULE
K0Y
   24    24     1     0     0
SMALL
abcg2


@<TRIPOS>ATOM
      1 N1           1.7470     0.9980    -0.1990 nc         1 K0Y      -0.353300
      2 C4           1.6910    -0.2940    -0.0510 cd         1 K0Y       0.221500
      3 C5           2.9810    -0.8590     0.0530 cd         1 K0Y      -0.200000
      4 C6           3.8040     0.2140    -0.0440 cc         1 K0Y       0.173300
      5 C7           5.2740     0.3720    -0.0200 c3         1 K0Y      -0.135400
      6 N           -0.6990    -0.2610    -0.0480 ns         1 K0Y      -0.490900
      7 C           -5.3600     0.7020     0.0160 c3         1 K0Y       0.151900
      8 O           -4.2680    -0.2230     0.0090 os         1 K0Y      -0.436100
      9 C1          -3.0490     0.2740    -0.0180 c          1 K0Y       0.580100
     10 C2          -2.0190    -0.8280    -0.0140 c3         1 K0Y       0.042000
     11 C3           0.3950    -1.0260    -0.0070 c          1 K0Y       0.528600
     12 O1          -2.7860     1.4500    -0.0410 o          1 K0Y      -0.485000
     13 O2           0.3800    -2.2440     0.0630 o          1 K0Y      -0.589100
     14 O3           3.0590     1.3190    -0.1960 os         1 K0Y      -0.059700
     15 H1           3.2510    -1.8930     0.1820 ha         1 K0Y       0.170000
     16 H2           5.6460     0.7410    -0.9770 hc         1 K0Y       0.064700
     17 H3           5.5840     1.0760     0.7530 hc         1 K0Y       0.064700
     18 H4           5.7430    -0.5880     0.1820 hc         1 K0Y       0.064700
     19 H5          -0.6090     0.7440    -0.0940 hn         1 K0Y       0.360500
     20 H6          -5.3340     1.3350     0.9020 h1         1 K0Y       0.053033
     21 H7          -5.3560     1.3250    -0.8770 h1         1 K0Y       0.053033
     22 H8          -6.2610     0.0970     0.0310 h1         1 K0Y       0.053033
     23 H9          -2.1950    -1.4820    -0.8730 h1         1 K0Y       0.084200
     24 H10         -2.1630    -1.4420     0.8800 h1         1 K0Y       0.084200
@<TRIPOS>BOND
     1     1     2 2   
     2     1    14 1   
     3     2     3 1   
     4     2    11 1   
     5     3     4 2   
     6     3    15 1   
     7     4     5 1   
     8     4    14 1   
     9     5    16 1   
    10     5    17 1   
    11     5    18 1   
    12     6    10 1   
    13     6    11 1   
    14     6    19 1   
    15     7     8 1   
    16     7    20 1   
    17     7    21 1   
    18     7    22 1   
    19     8     9 1   
    20     9    10 1   
    21     9    12 2   
    22    10    23 1   
    23    10    24 1   
    24    11    13 2   
@<TRIPOS>SUBSTRUCTURE
     1 K0Y         1 TEMP              0 ****  ****    0 ROOT
