@<TRIPOS>MOLECULE
K0Y
   24    24     1     0     0
SMALL
No Charge or Current Charge


@<TRIPOS>ATOM
      1 N1           1.7670     1.0780    -0.0860 nc         1 K0Y      -0.353300
      2 C4           1.7380    -0.2510    -0.0110 cd         1 K0Y       0.221500
      3 C5           3.0420    -0.7910     0.0140 cd         1 K0Y      -0.200000
      4 C6           3.9010     0.2570    -0.0490 cc         1 K0Y       0.173300
      5 C7           5.4000     0.3180    -0.0590 c3         1 K0Y      -0.135400
      6 N           -0.6860    -0.2850     0.0020 ns         1 K0Y      -0.490900
      7 C           -5.5130     0.6720    -0.0320 c3         1 K0Y       0.151900
      8 O           -4.4020    -0.2430     0.0150 os         1 K0Y      -0.436100
      9 C1          -3.1330     0.2780    -0.0190 c          1 K0Y       0.580100
     10 C2          -2.0630    -0.8310     0.0390 c3         1 K0Y       0.042000
     11 C3           0.4640    -1.0500     0.0400 c          1 K0Y       0.528600
     12 O1          -2.8810     1.4760    -0.0880 o          1 K0Y      -0.485000
     13 O2           0.4170    -2.2730     0.1100 o          1 K0Y      -0.589100
     14 O3           3.1720     1.4180    -0.1110 os         1 K0Y      -0.059700
     15 H1           3.3060    -1.8400     0.0720 ha         1 K0Y       0.170000
     16 H2           5.7620     0.7950    -0.9770 hc         1 K0Y       0.064700
     17 H3           5.7700     0.8960     0.7960 hc         1 K0Y       0.064700
     18 H4           5.8330    -0.6870    -0.0040 hc         1 K0Y       0.064700
     19 H5          -0.5590     0.7230    -0.0560 hn         1 K0Y       0.360500
     20 H6          -5.4880     1.3630     0.8220 h1         1 K0Y       0.053033
     21 H7          -5.4960     1.2630    -0.9570 h1         1 K0Y       0.053033
     22 H8          -6.4620     0.1230     0.0030 h1         1 K0Y       0.053033
     23 H9          -2.2210    -1.5020    -0.8150 h1         1 K0Y       0.084200
     24 H10         -2.2130    -1.4010     0.9640 h1         1 K0Y       0.084200
@<TRIPOS>BOND
     1     1     2 2   
     2     1    14 1   
     3     2     3 1   
     4     2    11 1   
     5     3     4 2   
     6     3    15 1   
     7     4     5 1   
     8     4    14 1   
     9     5    16 1   
    10     5    17 1   
    11     5    18 1   
    12     6    10 1   
    13     6    11 1   
    14     6    19 1   
    15     7     8 1   
    16     7    20 1   
    17     7    21 1   
    18     7    22 1   
    19     8     9 1   
    20     9    10 1   
    21     9    12 2   
    22    10    23 1   
    23    10    24 1   
    24    11    13 2   
@<TRIPOS>SUBSTRUCTURE
     1 K0Y         1 TEMP              0 ****  ****    0 ROOT
