@<TRIPOS>MOLECULE
K0Z
   31    32     1     0     0
SMALL
abcg2


@<TRIPOS>ATOM
      1 C10         17.6220    -7.0510   -45.8650 ce         1 K0Z       0.026800
      2 C12         17.2950    -5.7570   -43.7970 ch         1 K0Z       0.288700
      3 C17         17.8960    -2.2060   -45.7770 cc         1 K0Z       0.516300
      4 N19         18.0960     0.0100   -45.7680 nd         1 K0Z      -0.258000
      5 C14         17.7500    -4.6150   -45.9540 c          1 K0Z       0.629300
      6 C20         18.3400    -0.2500   -47.0070 cc         1 K0Z       0.389600
      7 C01         16.8430    -9.7670   -41.4540 c3         1 K0Z       0.155900
      8 C03         17.1910   -10.1540   -43.7900 ca         1 K0Z       0.033100
      9 C04         17.3300   -11.1320   -44.8040 ca         1 K0Z       0.166100
     10 C06         17.5530   -10.7440   -46.1180 ca         1 K0Z      -0.143000
     11 C07         17.6400    -9.3990   -46.4290 ca         1 K0Z      -0.048000
     12 C08         17.5030    -8.4110   -45.4380 ca         1 K0Z      -0.127800
     13 C09         17.2740    -8.8160   -44.1020 ca         1 K0Z      -0.100000
     14 C11         17.5450    -5.8680   -45.1870 cf         1 K0Z      -0.134900
     15 N13         17.0950    -5.6000   -42.6690 n1         1 K0Z      -0.455000
     16 N16         17.6820    -3.4460   -45.2360 ns         1 K0Z      -0.462400
     17 N18         17.8350    -1.1270   -45.0450 nd         1 K0Z      -0.389000
     18 O05         17.2480   -12.4380   -44.4950 oh         1 K0Z      -0.520100
     19 O15         17.9800    -4.5970   -47.1570 o          1 K0Z      -0.578100
     20 S22         18.2770    -1.9310   -47.4490 ss         1 K0Z      -0.128800
     21 BR          18.7460     1.0800   -48.2710 br         1 K0Z      -0.090200
     22 H1          17.8180    -6.9240   -46.9250 ha         1 K0Z       0.206000
     23 H2          16.6900   -10.3890   -40.5770 h1         1 K0Z       0.050700
     24 H3          17.7480    -9.1690   -41.3350 h1         1 K0Z       0.050700
     25 H4          15.9820    -9.1110   -41.6020 h1         1 K0Z       0.050700
     26 H5          17.6600   -11.5050   -46.8790 ha         1 K0Z       0.142000
     27 H6          17.8180    -9.0980   -47.4530 ha         1 K0Z       0.125000
     28 H7          17.1660    -8.0850   -43.3190 ha         1 K0Z       0.132000
     29 H8          17.4840    -3.4620   -44.2420 hn         1 K0Z       0.358500
     30 H9          17.1010   -12.5290   -43.5380 ho         1 K0Z       0.492000
     31 O02         16.9800   -10.6710   -42.5540 os         1 K0Z      -0.377100
@<TRIPOS>BOND
     1     1    12 1   
     2     1    14 2   
     3     1    22 1   
     4     2    14 1   
     5     2    15 3   
     6     3    16 1   
     7     3    17 2   
     8     3    20 1   
     9     4     6 2   
    10     4    17 1   
    11     5    14 1   
    12     5    16 1   
    13     5    19 2   
    14     6    20 1   
    15     6    21 1   
    16     7    23 1   
    17     7    24 1   
    18     7    25 1   
    19     7    31 1   
    20     8     9 ar  
    21     8    13 ar  
    22     8    31 1   
    23     9    10 ar  
    24     9    18 1   
    25    10    11 ar  
    26    10    26 1   
    27    11    12 ar  
    28    11    27 1   
    29    12    13 ar  
    30    13    28 1   
    31    16    29 1   
    32    18    30 1   
@<TRIPOS>SUBSTRUCTURE
     1 K0Z         1 TEMP              0 ****  ****    0 ROOT
