@<TRIPOS>MOLECULE
K0Z
   31    32     1     0     0
SMALL
No Charge or Current Charge


@<TRIPOS>ATOM
      1 C10         17.9860    -7.1360   -45.9150 ce         1 K0Z       0.026800
      2 C12         16.5610    -5.8630   -44.3950 ch         1 K0Z       0.288700
      3 C17         17.7810    -2.1750   -45.8750 cc         1 K0Z       0.516300
      4 N19         17.5230     0.0500   -45.6810 nd         1 K0Z      -0.258000
      5 C14         18.0230    -4.6440   -46.0410 c          1 K0Z       0.629300
      6 C20         18.4090    -0.0300   -46.6600 cc         1 K0Z       0.389600
      7 C01         17.4340    -9.6770   -41.3140 c3         1 K0Z       0.155900
      8 C03         17.2630   -10.1970   -43.7300 ca         1 K0Z       0.033100
      9 C04         16.9970   -11.1600   -44.7230 ca         1 K0Z       0.166100
     10 C06         17.0580   -10.8170   -46.0810 ca         1 K0Z      -0.143000
     11 C07         17.3800    -9.5030   -46.4600 ca         1 K0Z      -0.048000
     12 C08         17.6360    -8.5220   -45.4810 ca         1 K0Z      -0.127800
     13 C09         17.5890    -8.8760   -44.1150 ca         1 K0Z      -0.100000
     14 C11         17.5310    -5.9320   -45.4430 cf         1 K0Z      -0.134900
     15 N13         15.7760    -5.7570   -43.5390 n1         1 K0Z      -0.455000
     16 N16         17.5100    -3.4750   -45.5220 ns         1 K0Z      -0.462400
     17 N18         17.1580    -1.2040   -45.2240 nd         1 K0Z      -0.389000
     18 O05         16.6830   -12.4360   -44.3560 oh         1 K0Z      -0.520100
     19 O15         18.8410    -4.6400   -46.9480 o          1 K0Z      -0.578100
     20 S22         18.8800    -1.6340   -47.1170 ss         1 K0Z      -0.128800
     21 Br          19.1480     1.4660   -47.5410 br         1 K0Z      -0.090200
     22 H1          18.6920    -7.1240   -46.7480 ha         1 K0Z       0.206000
     23 H2          17.3220   -10.1920   -40.3530 h1         1 K0Z       0.050700
     24 H3          18.4510    -9.2660   -41.3620 h1         1 K0Z       0.050700
     25 H4          16.7170    -8.8460   -41.3390 h1         1 K0Z       0.050700
     26 H5          16.8550   -11.5680   -46.8400 ha         1 K0Z       0.142000
     27 H6          17.4230    -9.2460   -47.5160 ha         1 K0Z       0.125000
     28 H7          17.8200    -8.1240   -43.3670 ha         1 K0Z       0.132000
     29 H8          16.8410    -3.5930   -44.7750 hn         1 K0Z       0.358500
     30 H9          16.7020   -12.4500   -43.3730 ho         1 K0Z       0.492000
     31 O02         17.1970   -10.5910   -42.4030 os         1 K0Z      -0.377100
@<TRIPOS>BOND
     1     1    12 1   
     2     1    14 2   
     3     1    22 1   
     4     2    14 1   
     5     2    15 3   
     6     3    16 1   
     7     3    17 2   
     8     3    20 1   
     9     4     6 2   
    10     4    17 1   
    11     5    14 1   
    12     5    16 1   
    13     5    19 2   
    14     6    20 1   
    15     6    21 1   
    16     7    23 1   
    17     7    24 1   
    18     7    25 1   
    19     7    31 1   
    20     8     9 ar  
    21     8    13 ar  
    22     8    31 1   
    23     9    10 ar  
    24     9    18 1   
    25    10    11 ar  
    26    10    26 1   
    27    11    12 ar  
    28    11    27 1   
    29    12    13 ar  
    30    13    28 1   
    31    16    29 1   
    32    18    30 1   
@<TRIPOS>SUBSTRUCTURE
     1 K0Z         1 TEMP              0 ****  ****    0 ROOT
