@<TRIPOS>MOLECULE
K10
   46    48     1     0     0
SMALL
No Charge or Current Charge


@<TRIPOS>ATOM
      1 N1           0.6030    -3.0440     1.2760 nv         1 K10      -1.068900
      2 C1          -0.4910    -2.5630     0.6490 ca         1 K10       0.452900
      3 N2          -1.2840    -3.5010     0.1150 nb         1 K10      -0.312000
      4 C2          -2.4080    -3.0600    -0.4970 ca         1 K10       0.191900
      5 N3          -2.8080    -1.7740    -0.6150 nb         1 K10      -0.233000
      6 C3          -1.9890    -0.8520    -0.0700 ca         1 K10       0.158500
      7 C4          -0.8260    -1.2120     0.5600 ca         1 K10      -0.382900
      8 C5          -0.1980     0.0150     1.0020 cc         1 K10       0.388900
      9 N4          -0.9430     1.0800     0.6860 nd         1 K10      -0.527100
     10 N5          -2.0430     0.5350     0.0230 na         1 K10      -0.019100
     11 C6          -3.1560     1.3780    -0.5320 c3         1 K10       0.135000
     12 C7          -2.9120     2.8920    -0.2590 c3         1 K10      -0.100433
     13 C8          -3.2560     1.1890    -2.0700 c3         1 K10      -0.100433
     14 C9          -4.5050     0.9920     0.1330 c3         1 K10      -0.100433
     15 C10          1.1370     0.1880     1.6890 c3         1 K10      -0.034400
     16 C11          2.2560     0.5930     0.7220 ca         1 K10      -0.079300
     17 C12          2.8550    -0.4120    -0.0660 ca         1 K10      -0.101000
     18 C13          3.8800    -0.1070    -0.9770 ca         1 K10      -0.079300
     19 C14          4.3180     1.2210    -1.1020 ca         1 K10      -0.104000
     20 C15          3.7290     2.2320    -0.3280 ca         1 K10      -0.111000
     21 C16          2.6970     1.9350     0.5840 ca         1 K10      -0.058300
     22 C17          2.0870     3.0760     1.3960 c3         1 K10      -0.052800
     23 C18          4.5130    -1.2080    -1.8150 c3         1 K10      -0.044800
     24 HN11         0.6410    -4.0490     1.4260 hn         1 K10       0.495500
     25 HN12         1.0430    -2.4760     1.9900 hn         1 K10       0.495500
     26 H2          -3.0580    -3.8170    -0.9330 h5         1 K10       0.043100
     27 H71         -1.9790     3.2320    -0.7240 hc         1 K10       0.049700
     28 H72         -3.7280     3.5020    -0.6660 hc         1 K10       0.049700
     29 H73         -2.8520     3.0950     0.8170 hc         1 K10       0.049700
     30 H81         -3.5260     0.1610    -2.3360 hc         1 K10       0.049700
     31 H82         -4.0210     1.8490    -2.4960 hc         1 K10       0.049700
     32 H83         -2.2990     1.4230    -2.5520 hc         1 K10       0.049700
     33 H91         -4.4390     1.0860     1.2240 hc         1 K10       0.049700
     34 H92         -5.3140     1.6460    -0.2150 hc         1 K10       0.049700
     35 H93         -4.7930    -0.0380    -0.1010 hc         1 K10       0.049700
     36 H101         1.4190    -0.7260     2.2150 hc         1 K10       0.054200
     37 H102         1.0230     0.9230     2.4920 hc         1 K10       0.054200
     38 H12          2.5190    -1.4420     0.0280 ha         1 K10       0.105000
     39 H14          5.1130     1.4710    -1.8010 ha         1 K10       0.111000
     40 H15          4.0800     3.2560    -0.4410 ha         1 K10       0.110000
     41 H171         1.0000     3.1180     1.2690 hc         1 K10       0.046033
     42 H172         2.3010     2.9580     2.4650 hc         1 K10       0.046033
     43 H173         2.4850     4.0510     1.0910 hc         1 K10       0.046033
     44 H181         5.3470    -1.6760    -1.2790 hc         1 K10       0.041033
     45 H182         3.7870    -1.9940    -2.0570 hc         1 K10       0.041033
     46 H183         4.9010    -0.8170    -2.7640 hc         1 K10       0.041033
@<TRIPOS>BOND
     1     1     2 1   
     2     1    24 1   
     3     1    25 1   
     4     2     3 ar  
     5     2     7 ar  
     6     3     4 ar  
     7     4     5 ar  
     8     4    26 1   
     9     5     6 ar  
    10     6     7 ar  
    11     6    10 1   
    12     7     8 1   
    13     8     9 2   
    14     8    15 1   
    15     9    10 1   
    16    10    11 1   
    17    11    12 1   
    18    11    13 1   
    19    11    14 1   
    20    12    27 1   
    21    12    28 1   
    22    12    29 1   
    23    13    30 1   
    24    13    31 1   
    25    13    32 1   
    26    14    33 1   
    27    14    34 1   
    28    14    35 1   
    29    15    16 1   
    30    15    36 1   
    31    15    37 1   
    32    16    17 ar  
    33    16    21 ar  
    34    17    18 ar  
    35    17    38 1   
    36    18    19 ar  
    37    18    23 1   
    38    19    20 ar  
    39    19    39 1   
    40    20    21 ar  
    41    20    40 1   
    42    21    22 1   
    43    22    41 1   
    44    22    42 1   
    45    22    43 1   
    46    23    44 1   
    47    23    45 1   
    48    23    46 1   
@<TRIPOS>SUBSTRUCTURE
     1 K10         1 TEMP              0 ****  ****    0 ROOT
