@<TRIPOS>MOLECULE
K10
   46    48     1     0     0
SMALL
abcg2


@<TRIPOS>ATOM
      1 N1           0.6240    -3.1370     1.1010 nv         1 K10      -1.068900
      2 C1          -0.4560    -2.5910     0.5310 ca         1 K10       0.452900
      3 N2          -1.2970    -3.4080    -0.1040 nb         1 K10      -0.312000
      4 C2          -2.3850    -2.8910    -0.6740 ca         1 K10       0.191900
      5 N3          -2.7810    -1.6370    -0.6990 nb         1 K10      -0.233000
      6 C3          -1.9290    -0.8170    -0.0700 ca         1 K10       0.158500
      7 C4          -0.7380    -1.2050     0.5550 ca         1 K10      -0.382900
      8 C5          -0.1820     0.0040     1.0510 cc         1 K10       0.388900
      9 N4          -0.9780     1.0010     0.7590 nd         1 K10      -0.527100
     10 N5          -2.0350     0.5180     0.0850 na         1 K10      -0.019100
     11 C6          -3.0960     1.4110    -0.4200 c3         1 K10       0.135000
     12 C7          -2.8020     2.8410     0.0190 c3         1 K10      -0.100433
     13 C8          -3.1140     1.3410    -1.9480 c3         1 K10      -0.100433
     14 C9          -4.4420     0.9690     0.1560 c3         1 K10      -0.100433
     15 C10          1.1290     0.2560     1.7310 c3         1 K10      -0.034400
     16 C11          2.2110     0.6000     0.7300 ca         1 K10      -0.079300
     17 C12          2.9000    -0.4280     0.0960 ca         1 K10      -0.101000
     18 C13          3.8770    -0.1890    -0.8660 ca         1 K10      -0.079300
     19 C14          4.1560     1.1340    -1.1880 ca         1 K10      -0.104000
     20 C15          3.4780     2.1700    -0.5600 ca         1 K10      -0.111000
     21 C16          2.4990     1.9310     0.4010 ca         1 K10      -0.058300
     22 C17          1.7830     3.0830     1.0460 c3         1 K10      -0.052800
     23 C18          4.6190    -1.3240    -1.5110 c3         1 K10      -0.044800
     24 HN11         0.7020    -4.1400     1.1270 hn         1 K10       0.495500
     25 HN12         1.1980    -2.6240     1.7460 hn         1 K10       0.495500
     26 H2          -3.0290    -3.6060    -1.1750 h5         1 K10       0.043100
     27 H71         -1.8550     3.2060    -0.3740 hc         1 K10       0.049700
     28 H72         -3.5970     3.4820    -0.3630 hc         1 K10       0.049700
     29 H73         -2.7820     2.9410     1.1040 hc         1 K10       0.049700
     30 H81         -3.3440     0.3370    -2.3030 hc         1 K10       0.049700
     31 H82         -3.8760     2.0180    -2.3360 hc         1 K10       0.049700
     32 H83         -2.1510     1.6430    -2.3630 hc         1 K10       0.049700
     33 H91         -4.4380     1.0200     1.2460 hc         1 K10       0.049700
     34 H92         -5.2270     1.6330    -0.2080 hc         1 K10       0.049700
     35 H93         -4.6960    -0.0470    -0.1420 hc         1 K10       0.049700
     36 H101         1.4280    -0.6160     2.3150 hc         1 K10       0.054200
     37 H102         1.0010     1.0620     2.4540 hc         1 K10       0.054200
     38 H12          2.6650    -1.4560     0.3510 ha         1 K10       0.105000
     39 H14          4.9080     1.3610    -1.9350 ha         1 K10       0.111000
     40 H15          3.7150     3.1930    -0.8290 ha         1 K10       0.110000
     41 H171         0.7060     3.0240     0.8880 hc         1 K10       0.046033
     42 H172         1.9460     3.1080     2.1260 hc         1 K10       0.046033
     43 H173         2.1310     4.0330     0.6420 hc         1 K10       0.046033
     44 H181         5.4940    -1.6070    -0.9230 hc         1 K10       0.041033
     45 H182         3.9940    -2.2120    -1.6050 hc         1 K10       0.041033
     46 H183         4.9730    -1.0540    -2.5060 hc         1 K10       0.041033
@<TRIPOS>BOND
     1     1     2 1   
     2     1    24 1   
     3     1    25 1   
     4     2     3 ar  
     5     2     7 ar  
     6     3     4 ar  
     7     4     5 ar  
     8     4    26 1   
     9     5     6 ar  
    10     6     7 ar  
    11     6    10 1   
    12     7     8 1   
    13     8     9 2   
    14     8    15 1   
    15     9    10 1   
    16    10    11 1   
    17    11    12 1   
    18    11    13 1   
    19    11    14 1   
    20    12    27 1   
    21    12    28 1   
    22    12    29 1   
    23    13    30 1   
    24    13    31 1   
    25    13    32 1   
    26    14    33 1   
    27    14    34 1   
    28    14    35 1   
    29    15    16 1   
    30    15    36 1   
    31    15    37 1   
    32    16    17 ar  
    33    16    21 ar  
    34    17    18 ar  
    35    17    38 1   
    36    18    19 ar  
    37    18    23 1   
    38    19    20 ar  
    39    19    39 1   
    40    20    21 ar  
    41    20    40 1   
    42    21    22 1   
    43    22    41 1   
    44    22    42 1   
    45    22    43 1   
    46    23    44 1   
    47    23    45 1   
    48    23    46 1   
@<TRIPOS>SUBSTRUCTURE
     1 K10         1 TEMP              0 ****  ****    0 ROOT
