@<TRIPOS>MOLECULE
K11
   59    64     1     0     0
SMALL
abcg2


@<TRIPOS>ATOM
      1 C38          7.0300     3.6500     3.0330 c3         1 K11       0.234100
      2 N37          6.2150     3.1520     1.9550 nu         1 K11      -0.926100
      3 C35          6.5500     2.1050     1.1860 ca         1 K11       0.386900
      4 N30          5.6660     1.7420     0.2460 nb         1 K11      -0.233000
      5 N34          7.7300     1.5160     1.4140 nb         1 K11      -0.246000
      6 C33          8.0300     0.4920     0.6320 ca         1 K11       0.150900
      7 C32          7.1940     0.0290    -0.3670 ca         1 K11      -0.288000
      8 C31          5.9880     0.7130    -0.5180 cp         1 K11       0.236500
      9 C24          5.0350     0.3080    -1.5720 cp         1 K11      -0.223500
     10 C25          5.4720     0.0760    -2.8670 ca         1 K11      -0.031000
     11 C26          4.5720    -0.3060    -3.8540 ca         1 K11      -0.206000
     12 C27          3.2470    -0.4530    -3.4930 ca         1 K11       0.390900
     13 N28          2.8070    -0.2530    -2.2530 nb         1 K11      -0.737000
     14 C29          3.6650     0.1160    -1.3340 ca         1 K11       0.611300
     15 O36          3.2270     0.2900    -0.0710 os         1 K11      -0.350400
     16 C20          1.9350    -0.0610     0.2380 ca         1 K11       0.112100
     17 C21          0.9470     0.8770     0.2080 ca         1 K11      -0.081000
     18 C22         -0.3580     0.5420     0.6020 ca         1 K11      -0.100000
     19 C13          1.6730    -1.3900     0.6460 ca         1 K11      -0.023000
     20 C18          2.6880    -2.3740     0.6990 ca         1 K11      -0.084000
     21 C17          2.3960    -3.6590     1.0630 ca         1 K11      -0.108000
     22 C16          1.0740    -4.0210     1.3830 ca         1 K11      -0.101000
     23 C15          0.0750    -3.0860     1.3560 ca         1 K11      -0.108000
     24 C14          0.3440    -1.7420     1.0050 ca         1 K11      -0.043000
     25 C23         -0.6680    -0.7370     0.9900 ca         1 K11       0.306000
     26 N19         -1.9590    -1.0850     1.4060 nu         1 K11      -0.921200
     27 C12         -3.1090    -0.6810     0.8210 cc         1 K11       0.676700
     28 N5          -4.3120    -1.0160     1.3640 na         1 K11      -0.353600
     29 C7          -5.2800    -0.4950     0.5410 ca         1 K11      -0.098200
     30 C8          -6.6590    -0.5330     0.5890 ca         1 K11      -0.052000
     31 C9          -7.3360     0.1080    -0.4460 ca         1 K11      -0.199300
     32 C39         -8.8280     0.1480    -0.4310 c3         1 K11       0.357300
     33 F2          -9.3010     1.2540     0.1730 f          1 K11      -0.116667
     34 F3          -9.3520     0.1420    -1.6640 f          1 K11      -0.116667
     35 F1          -9.3620    -0.8930     0.2230 f          1 K11      -0.116667
     36 C10         -6.6450     0.7640    -1.4710 ca         1 K11      -0.078000
     37 C11         -5.2610     0.7930    -1.5010 ca         1 K11      -0.075000
     38 C6          -4.5640     0.1520    -0.4820 ca         1 K11       0.132400
     39 N4          -3.2150     0.0200    -0.2810 nd         1 K11      -0.630100
     40 H38          8.0230     3.9410     2.6880 h1         1 K11       0.040367
     41 H38A         6.5430     4.5270     3.4470 h1         1 K11       0.040367
     42 H38B         7.1540     2.9160     3.8320 h1         1 K11       0.040367
     43 HN37         5.3060     3.5540     1.8050 hn         1 K11       0.510000
     44 H33          8.9840     0.0090     0.8160 h4         1 K11       0.018100
     45 H32          7.4570    -0.8240    -0.9750 ha         1 K11       0.133000
     46 H25          6.5190     0.2070    -3.1080 ha         1 K11       0.126000
     47 H26          4.8910    -0.4800    -4.8710 ha         1 K11       0.130000
     48 H27          2.5030    -0.7460    -4.2240 h4         1 K11       0.025100
     49 H21          1.1680     1.8910    -0.1000 ha         1 K11       0.134000
     50 H22         -1.1190     1.3090     0.5980 ha         1 K11       0.140000
     51 H18          3.7080    -2.1100     0.4570 ha         1 K11       0.125000
     52 H17          3.1810    -4.4020     1.0990 ha         1 K11       0.116000
     53 H16          0.8450    -5.0450     1.6480 ha         1 K11       0.113000
     54 H15         -0.9340    -3.3940     1.5940 ha         1 K11       0.104000
     55 HN19        -2.0420    -1.6900     2.2070 hn         1 K11       0.501000
     56 HN5         -4.4620    -1.5480     2.2070 hn         1 K11       0.357000
     57 H8          -7.1760    -1.0420     1.3910 ha         1 K11       0.131000
     58 H10         -7.1890     1.2560    -2.2660 ha         1 K11       0.129000
     59 H11         -4.7360     1.2960    -2.3020 ha         1 K11       0.136000
@<TRIPOS>BOND
     1     1     2 1   
     2     1    40 1   
     3     1    41 1   
     4     1    42 1   
     5     2     3 1   
     6     2    43 1   
     7     3     4 ar  
     8     3     5 ar  
     9     4     8 ar  
    10     5     6 ar  
    11     6     7 ar  
    12     6    44 1   
    13     7     8 ar  
    14     7    45 1   
    15     8     9 1   
    16     9    10 ar  
    17     9    14 ar  
    18    10    11 ar  
    19    10    46 1   
    20    11    12 ar  
    21    11    47 1   
    22    12    13 ar  
    23    12    48 1   
    24    13    14 ar  
    25    14    15 1   
    26    15    16 1   
    27    16    17 ar  
    28    16    19 ar  
    29    17    18 ar  
    30    17    49 1   
    31    18    25 ar  
    32    18    50 1   
    33    19    20 ar  
    34    19    24 ar  
    35    20    21 ar  
    36    20    51 1   
    37    21    22 ar  
    38    21    52 1   
    39    22    23 ar  
    40    22    53 1   
    41    23    24 ar  
    42    23    54 1   
    43    24    25 ar  
    44    25    26 1   
    45    26    27 1   
    46    26    55 1   
    47    27    28 1   
    48    27    39 2   
    49    28    29 1   
    50    28    56 1   
    51    29    30 ar  
    52    29    38 ar  
    53    30    31 ar  
    54    30    57 1   
    55    31    32 1   
    56    31    36 ar  
    57    32    33 1   
    58    32    34 1   
    59    32    35 1   
    60    36    37 ar  
    61    36    58 1   
    62    37    38 ar  
    63    37    59 1   
    64    38    39 1   
@<TRIPOS>SUBSTRUCTURE
     1 K11         1 TEMP              0 ****  ****    0 ROOT
