@<TRIPOS>MOLECULE
K11
   59    64     1     0     0
SMALL
No Charge or Current Charge


@<TRIPOS>ATOM
      1 C38          5.9990     2.8380     3.5800 c3         1 K11       0.234100
      2 N37          5.4070     2.2970     2.3420 nu         1 K11      -0.926100
      3 C35          6.0790     1.8100     1.2290 ca         1 K11       0.386900
      4 N30          5.2980     1.3660     0.2310 nb         1 K11      -0.233000
      5 N34          7.4250     1.8280     1.2510 nb         1 K11      -0.246000
      6 C33          8.0460     1.3530     0.1560 ca         1 K11       0.150900
      7 C32          7.3190     0.8670    -0.9410 ca         1 K11      -0.288000
      8 C31          5.9060     0.8760    -0.8680 cp         1 K11       0.236500
      9 C24          5.0580     0.4120    -2.0060 cp         1 K11      -0.223500
     10 C25          5.4230     0.7290    -3.3360 ca         1 K11      -0.031000
     11 C26          4.6090     0.2920    -4.3890 ca         1 K11      -0.206000
     12 C27          3.4590    -0.4530    -4.1020 ca         1 K11       0.390900
     13 N28          3.0940    -0.7800    -2.8460 nb         1 K11      -0.737000
     14 C29          3.8710    -0.3500    -1.8260 ca         1 K11       0.611300
     15 O36          3.5450    -0.7400    -0.5480 os         1 K11      -0.350400
     16 C20          2.2490    -0.7630    -0.0760 ca         1 K11       0.112100
     17 C21          1.3620     0.2770    -0.4040 ca         1 K11      -0.081000
     18 C22          0.0520     0.2690     0.0970 ca         1 K11      -0.100000
     19 C13          1.8270    -1.8060     0.7810 ca         1 K11      -0.023000
     20 C18          2.7200    -2.8430     1.1330 ca         1 K11      -0.084000
     21 C17          2.3060    -3.8860     1.9760 ca         1 K11      -0.108000
     22 C16          0.9950    -3.9060     2.4710 ca         1 K11      -0.101000
     23 C15          0.0970    -2.8820     2.1300 ca         1 K11      -0.108000
     24 C14          0.4990    -1.8160     1.2860 ca         1 K11      -0.043000
     25 C23         -0.3960    -0.7700     0.9320 ca         1 K11       0.306000
     26 N19         -1.7030    -0.7250     1.4340 nu         1 K11      -0.921200
     27 C12         -2.8920    -0.4380     0.8490 cc         1 K11       0.676700
     28 N5          -4.0920    -0.4870     1.5260 na         1 K11      -0.353600
     29 C7          -5.0560    -0.1660     0.6190 ca         1 K11      -0.098200
     30 C8          -6.4430    -0.0590     0.7700 ca         1 K11      -0.052000
     31 C9          -7.2070     0.2950    -0.3700 ca         1 K11      -0.199300
     32 C39         -8.7300     0.4400    -0.2730 c3         1 K11       0.357300
     33 F2          -9.0870     1.7220    -0.0340 f          1 K11      -0.116667
     34 F3          -9.3530     0.0620    -1.4130 f          1 K11      -0.116667
     35 F1          -9.2590    -0.3090     0.7220 f          1 K11      -0.116667
     36 C10         -6.5420     0.5380    -1.6050 ca         1 K11      -0.078000
     37 C11         -5.1380     0.4180    -1.7080 ca         1 K11      -0.075000
     38 C6          -4.4140     0.0600    -0.5650 ca         1 K11       0.132400
     39 N4          -3.0370    -0.1120    -0.4390 nd         1 K11      -0.630100
     40 H38          6.6230     3.7140     3.3580 h1         1 K11       0.040367
     41 H38A         5.2110     3.1450     4.2810 h1         1 K11       0.040367
     42 H38B         6.6240     2.0800     4.0720 h1         1 K11       0.040367
     43 HN37         4.3870     2.2580     2.2850 hn         1 K11       0.510000
     44 H33          9.1350     1.3640     0.1580 h4         1 K11       0.018100
     45 H32          7.8340     0.4850    -1.8180 ha         1 K11       0.133000
     46 H25          6.3160     1.3160    -3.5460 ha         1 K11       0.126000
     47 H26          4.8610     0.5260    -5.4200 ha         1 K11       0.130000
     48 H27          2.8120    -0.8060    -4.9040 h4         1 K11       0.025100
     49 H21          1.6860     1.0980    -1.0380 ha         1 K11       0.134000
     50 H22         -0.6160     1.0860    -0.1560 ha         1 K11       0.140000
     51 H18          3.7400    -2.8490     0.7560 ha         1 K11       0.125000
     52 H17          3.0010    -4.6800     2.2410 ha         1 K11       0.116000
     53 H16          0.6730    -4.7180     3.1200 ha         1 K11       0.113000
     54 H15         -0.9130    -2.9380     2.5260 ha         1 K11       0.104000
     55 HN19        -1.8300    -1.1900     2.3260 hn         1 K11       0.501000
     56 HN5         -4.2140    -0.7030     2.5040 hn         1 K11       0.357000
     57 H8          -6.9090    -0.2420     1.7360 ha         1 K11       0.131000
     58 H10         -7.1120     0.8230    -2.4870 ha         1 K11       0.129000
     59 H11         -4.6300     0.6020    -2.6510 ha         1 K11       0.136000
@<TRIPOS>BOND
     1     1     2 1   
     2     1    40 1   
     3     1    41 1   
     4     1    42 1   
     5     2     3 1   
     6     2    43 1   
     7     3     4 ar  
     8     3     5 ar  
     9     4     8 ar  
    10     5     6 ar  
    11     6     7 ar  
    12     6    44 1   
    13     7     8 ar  
    14     7    45 1   
    15     8     9 1   
    16     9    10 ar  
    17     9    14 ar  
    18    10    11 ar  
    19    10    46 1   
    20    11    12 ar  
    21    11    47 1   
    22    12    13 ar  
    23    12    48 1   
    24    13    14 ar  
    25    14    15 1   
    26    15    16 1   
    27    16    17 ar  
    28    16    19 ar  
    29    17    18 ar  
    30    17    49 1   
    31    18    25 ar  
    32    18    50 1   
    33    19    20 ar  
    34    19    24 ar  
    35    20    21 ar  
    36    20    51 1   
    37    21    22 ar  
    38    21    52 1   
    39    22    23 ar  
    40    22    53 1   
    41    23    24 ar  
    42    23    54 1   
    43    24    25 ar  
    44    25    26 1   
    45    26    27 1   
    46    26    55 1   
    47    27    28 1   
    48    27    39 2   
    49    28    29 1   
    50    28    56 1   
    51    29    30 ar  
    52    29    38 ar  
    53    30    31 ar  
    54    30    57 1   
    55    31    32 1   
    56    31    36 ar  
    57    32    33 1   
    58    32    34 1   
    59    32    35 1   
    60    36    37 ar  
    61    36    58 1   
    62    37    38 ar  
    63    37    59 1   
    64    38    39 1   
@<TRIPOS>SUBSTRUCTURE
     1 K11         1 TEMP              0 ****  ****    0 ROOT
