@<TRIPOS>MOLECULE
K13
   78    81     1     0     0
SMALL
abcg2


@<TRIPOS>ATOM
      1 N1          13.8310    34.5230    17.6940 nv         1 K13      -1.091000
      2 C2          14.8780    34.0530    16.9440 ca         1 K13       0.365000
      3 C3          16.0050    34.8610    16.6990 ca         1 K13      -0.211000
      4 C4          17.0380    34.4070    15.9020 ca         1 K13       0.034000
      5 C5          16.9720    33.1360    15.3260 ca         1 K13      -0.382500
      6 C6          15.8620    32.3230    15.5620 ca         1 K13       0.034000
      7 C7          14.8280    32.7760    16.3580 ca         1 K13      -0.211000
      8 S8          18.3260    32.5240    14.3920 sy         1 K13       1.201600
      9 O9          17.8530    31.4080    13.6040 o          1 K13      -0.549000
     10 O10         18.9660    33.6320    13.7180 o          1 K13      -0.549000
     11 N11         19.4340    31.9170    15.4530 n3         1 K13      -0.744500
     12 C12         20.1880    32.9000    16.2530 c3         1 K13       0.205800
     13 C13         21.6510    32.5040    16.4610 c3         1 K13      -0.060700
     14 C14         22.4010    32.4200    15.1320 c3         1 K13      -0.088100
     15 C15         22.3190    33.4590    17.4660 c3         1 K13      -0.075400
     16 C16         19.0810    30.6720    16.1500 c3         1 K13       0.213800
     17 C17         19.9830    29.5010    15.7560 c3         1 K13       0.154300
     18 C18         22.3790    34.9290    17.0490 c3         1 K13      -0.090100
     19 O18         19.8050    28.5150    16.7760 oh         1 K13      -0.674000
     20 C19         19.7030    28.9530    14.3480 c3         1 K13       0.094700
     21 N20         20.7990    28.1050    13.9040 ns         1 K13      -0.500900
     22 C21         21.6030    28.4390    12.8770 c          1 K13       0.633100
     23 O22         21.5960    29.5070    12.2840 o          1 K13      -0.535000
     24 O23         22.4470    27.4180    12.5880 os         1 K13      -0.460100
     25 C24         23.2900    27.5650    11.4290 c5         1 K13       0.160300
     26 C25         24.5270    26.7150    11.6520 c5         1 K13       0.152600
     27 O26         24.1600    25.3980    11.2390 os         1 K13      -0.468000
     28 C27         23.3080    25.5180    10.0960 c5         1 K13       0.367300
     29 O28         22.2830    24.5680    10.1490 os         1 K13      -0.446000
     30 C29         21.1110    25.1900    10.7200 c5         1 K13       0.150600
     31 C30         21.1600    26.6240    10.2080 c5         1 K13      -0.094400
     32 C31         22.6640    26.9280    10.1710 c5         1 K13      -0.141700
     33 C32         18.3720    28.1970    14.2460 c3         1 K13      -0.035100
     34 C33         18.0270    26.2980    12.6230 ca         1 K13      -0.102500
     35 C34         17.7520    25.8030    11.3520 ca         1 K13      -0.117000
     36 C35         17.5450    26.6780    10.2930 ca         1 K13      -0.115000
     37 C36         17.6140    28.0500    10.5150 ca         1 K13      -0.117000
     38 C37         17.8830    28.5410    11.7880 ca         1 K13      -0.102500
     39 C38         18.0900    27.6710    12.8610 ca         1 K13      -0.087300
     40 HN1         13.1760    33.8500    18.0590 hn         1 K13       0.471000
     41 HN1A        14.0060    35.3090    18.3010 hn         1 K13       0.471000
     42 H3          16.0550    35.8490    17.1390 ha         1 K13       0.118000
     43 H4          17.8920    35.0440    15.7200 ha         1 K13       0.130500
     44 H6          15.8070    31.3410    15.1130 ha         1 K13       0.130500
     45 H7          13.9640    32.1450    16.5340 ha         1 K13       0.118000
     46 H12         20.1490    33.8500    15.7280 h1         1 K13       0.052200
     47 H12A        19.6930    33.0270    17.2220 h1         1 K13       0.052200
     48 H13         21.6710    31.5150    16.9270 hc         1 K13       0.045700
     49 H14         23.4430    32.1380    15.2950 hc         1 K13       0.043367
     50 H14A        21.9480    31.6780    14.4740 hc         1 K13       0.043367
     51 H14B        22.3850    33.3780    14.6080 hc         1 K13       0.043367
     52 H15         21.7880    33.3800    18.4210 hc         1 K13       0.038200
     53 H15A        23.3340    33.0960    17.6480 hc         1 K13       0.038200
     54 H16         19.1930    30.8370    17.2220 h1         1 K13       0.060200
     55 H16A        18.0370    30.4170    15.9750 h1         1 K13       0.060200
     56 H17         21.0190    29.8460    15.7620 h1         1 K13       0.058700
     57 H18         22.8980    35.5170    17.8090 hc         1 K13       0.034033
     58 H18A        22.9150    35.0600    16.1080 hc         1 K13       0.034033
     59 H18B        21.3820    35.3590    16.9280 hc         1 K13       0.034033
     60 HO18        20.4850    27.8370    16.6780 ho         1 K13       0.450000
     61 H19         19.6860    29.8040    13.6720 h1         1 K13       0.112700
     62 HN20        20.8470    27.1530    14.2340 hn         1 K13       0.321500
     63 H24         23.5170    28.6180    11.2940 h1         1 K13       0.088700
     64 H25         25.3530    27.0970    11.0410 h1         1 K13       0.062200
     65 H25A        24.8360    26.6800    12.6950 h1         1 K13       0.062200
     66 H27         23.8930    25.3260     9.1940 h2         1 K13       0.081700
     67 H29         20.2450    24.6280    10.3800 h1         1 K13       0.056700
     68 H29A        21.1600    25.1510    11.8120 h1         1 K13       0.056700
     69 H30         20.7530    26.6710     9.1980 hc         1 K13       0.066200
     70 H30A        20.5850    27.3080    10.8270 hc         1 K13       0.066200
     71 H31         22.9340    27.5280     9.3050 hc         1 K13       0.077700
     72 H32         18.3800    27.3670    14.9540 hc         1 K13       0.058700
     73 H32A        17.5730    28.8730    14.5510 hc         1 K13       0.058700
     74 H34         17.7070    24.7330    11.1890 ha         1 K13       0.112500
     75 H35         17.3370    26.2950     9.3010 ha         1 K13       0.110000
     76 H36         17.4570    28.7410     9.6950 ha         1 K13       0.112500
     77 H37         17.9300    29.6100    11.9550 ha         1 K13       0.126000
     78 H33         18.1940    25.6100    13.4440 ha         1 K13       0.126000
@<TRIPOS>BOND
     1     1     2 1   
     2     1    40 1   
     3     1    41 1   
     4     2     3 ar  
     5     2     7 ar  
     6     3     4 ar  
     7     3    42 1   
     8     4     5 ar  
     9     4    43 1   
    10     5     6 ar  
    11     5     8 1   
    12     6     7 ar  
    13     6    44 1   
    14     7    45 1   
    15     8     9 2   
    16     8    10 2   
    17     8    11 1   
    18    11    12 1   
    19    11    16 1   
    20    12    13 1   
    21    12    46 1   
    22    12    47 1   
    23    13    14 1   
    24    13    15 1   
    25    13    48 1   
    26    14    49 1   
    27    14    50 1   
    28    14    51 1   
    29    15    18 1   
    30    15    52 1   
    31    15    53 1   
    32    16    17 1   
    33    16    54 1   
    34    16    55 1   
    35    17    19 1   
    36    17    20 1   
    37    17    56 1   
    38    18    57 1   
    39    18    58 1   
    40    18    59 1   
    41    19    60 1   
    42    20    21 1   
    43    20    33 1   
    44    20    61 1   
    45    21    22 1   
    46    21    62 1   
    47    22    23 2   
    48    22    24 1   
    49    24    25 1   
    50    25    26 1   
    51    25    32 1   
    52    25    63 1   
    53    26    27 1   
    54    26    64 1   
    55    26    65 1   
    56    27    28 1   
    57    28    29 1   
    58    28    32 1   
    59    28    66 1   
    60    29    30 1   
    61    30    31 1   
    62    30    67 1   
    63    30    68 1   
    64    31    32 1   
    65    31    69 1   
    66    31    70 1   
    67    32    71 1   
    68    33    39 1   
    69    33    72 1   
    70    33    73 1   
    71    34    35 ar  
    72    34    39 ar  
    73    34    78 1   
    74    35    36 ar  
    75    35    74 1   
    76    36    37 ar  
    77    36    75 1   
    78    37    38 ar  
    79    37    76 1   
    80    38    39 ar  
    81    38    77 1   
@<TRIPOS>SUBSTRUCTURE
     1 K13         1 TEMP              0 ****  ****    0 ROOT
