@<TRIPOS>MOLECULE
K13
   78    81     1     0     0
SMALL
No Charge or Current Charge


@<TRIPOS>ATOM
      1 N1          14.3750    34.5550    18.7900 nv         1 K13      -1.091000
      2 C2          15.1540    34.1170    17.7580 ca         1 K13       0.365000
      3 C3          16.1330    34.9580    17.2170 ca         1 K13      -0.211000
      4 C4          16.9380    34.5140    16.1560 ca         1 K13       0.034000
      5 C5          16.7620    33.2140    15.6400 ca         1 K13      -0.382500
      6 C6          15.7690    32.3730    16.1800 ca         1 K13       0.034000
      7 C7          14.9700    32.8300    17.2410 ca         1 K13      -0.211000
      8 S8          17.7930    32.6400    14.2840 sy         1 K13       1.201600
      9 O9          17.1410    31.5160    13.6060 o          1 K13      -0.549000
     10 O10         18.2800    33.7890    13.5130 o          1 K13      -0.549000
     11 N11         19.1500    31.9890    15.0910 n3         1 K13      -0.744500
     12 C12         19.9530    33.0130    15.8160 c3         1 K13       0.205800
     13 C13         21.3980    32.6010    16.2120 c3         1 K13      -0.060700
     14 C14         22.2740    32.2960    14.9700 c3         1 K13      -0.088100
     15 C15         22.0660    33.6390    17.1590 c3         1 K13      -0.075400
     16 C16         18.8500    30.7740    15.9070 c3         1 K13       0.213800
     17 C17         19.7660    29.5460    15.6160 c3         1 K13       0.154300
     18 C18         22.2680    35.0560    16.5740 c3         1 K13      -0.090100
     19 O18         19.5760    28.5370    16.6300 oh         1 K13      -0.674000
     20 C19         19.5690    28.9370    14.1920 c3         1 K13       0.094700
     21 N20         20.6650    28.0170    13.8490 ns         1 K13      -0.500900
     22 C21         21.6990    28.3150    13.0110 c          1 K13       0.633100
     23 O22         21.8950    29.4060    12.4990 o          1 K13      -0.535000
     24 O23         22.4190    27.1730    12.8010 os         1 K13      -0.460100
     25 C24         23.4990    27.2910    11.8280 c5         1 K13       0.160300
     26 C25         24.5410    26.1920    12.1680 c5         1 K13       0.152600
     27 O26         24.0230    25.0120    11.5290 os         1 K13      -0.468000
     28 C27         23.5730    25.4060    10.2220 c5         1 K13       0.367300
     29 O28         22.4140    24.6150     9.9010 os         1 K13      -0.446000
     30 C29         21.2850    25.2470    10.5320 c5         1 K13       0.150600
     31 C30         21.5050    26.7310    10.1650 c5         1 K13      -0.094400
     32 C31         23.0600    26.8790    10.3620 c5         1 K13      -0.141700
     33 C32         18.2030    28.2350    13.9560 c3         1 K13      -0.035100
     34 C33         17.9570    26.2880    12.3270 ca         1 K13      -0.102500
     35 C34         17.8310    25.7780    11.0240 ca         1 K13      -0.117000
     36 C35         17.8150    26.6520     9.9240 ca         1 K13      -0.115000
     37 C36         17.9180    28.0370    10.1300 ca         1 K13      -0.117000
     38 C37         18.0380    28.5480    11.4340 ca         1 K13      -0.102500
     39 C38         18.0620    27.6770    12.5410 ca         1 K13      -0.087300
     40 HN1         13.7990    33.8850    19.2960 hn         1 K13       0.471000
     41 HN1A        14.6300    35.4100    19.2800 hn         1 K13       0.471000
     42 H3          16.2730    35.9590    17.6130 ha         1 K13       0.118000
     43 H4          17.6950    35.1800    15.7420 ha         1 K13       0.130500
     44 H6          15.6090    31.3710    15.7850 ha         1 K13       0.130500
     45 H7          14.2070    32.1790    17.6560 ha         1 K13       0.118000
     46 H12         20.0490    33.9170    15.2020 h1         1 K13       0.052200
     47 H12A        19.4200    33.3140    16.7290 h1         1 K13       0.052200
     48 H13         21.3340    31.6810    16.8010 hc         1 K13       0.045700
     49 H14         23.2820    31.9850    15.2710 hc         1 K13       0.043367
     50 H14A        21.8380    31.4880    14.3720 hc         1 K13       0.043367
     51 H14B        22.3630    33.1750    14.3210 hc         1 K13       0.043367
     52 H15         21.4620    33.7230    18.0720 hc         1 K13       0.038200
     53 H15A        23.0420    33.2510    17.4760 hc         1 K13       0.038200
     54 H16         18.9330    31.0170    16.9750 h1         1 K13       0.060200
     55 H16A        17.8130    30.4430    15.7720 h1         1 K13       0.060200
     56 H17         20.8030    29.8970    15.6650 h1         1 K13       0.058700
     57 H18         22.7460    35.7040    17.3180 hc         1 K13       0.034033
     58 H18A        22.9120    35.0320    15.6880 hc         1 K13       0.034033
     59 H18B        21.3100    35.5130    16.2990 hc         1 K13       0.034033
     60 HO18        20.2980    27.8810    16.5200 ho         1 K13       0.450000
     61 H19         19.6150    29.7830    13.4910 h1         1 K13       0.112700
     62 HN20        20.6060    27.0510    14.1410 hn         1 K13       0.321500
     63 H24         23.9660    28.2850    11.8790 h1         1 K13       0.088700
     64 H25         25.5270    26.4280    11.7440 h1         1 K13       0.062200
     65 H25A        24.6510    26.0230    13.2470 h1         1 K13       0.062200
     66 H27         24.3710    25.2960     9.4750 h2         1 K13       0.081700
     67 H29         20.3490    24.8380    10.1300 h1         1 K13       0.056700
     68 H29A        21.3190    25.0710    11.6160 h1         1 K13       0.056700
     69 H30         21.2350    26.8950     9.1150 hc         1 K13       0.066200
     70 H30A        20.8840    27.4190    10.7440 hc         1 K13       0.066200
     71 H31         23.5110    27.5360     9.6110 hc         1 K13       0.077700
     72 H32         18.0790    27.4300    14.6900 hc         1 K13       0.058700
     73 H32A        17.3850    28.9380    14.1460 hc         1 K13       0.058700
     74 H34         17.7480    24.7040    10.8660 ha         1 K13       0.112500
     75 H35         17.7210    26.2560     8.9150 ha         1 K13       0.110000
     76 H36         17.9040    28.7160     9.2800 ha         1 K13       0.112500
     77 H37         18.1130    29.6230    11.5830 ha         1 K13       0.126000
     78 H33         17.9720    25.6000    13.1710 ha         1 K13       0.126000
@<TRIPOS>BOND
     1     1     2 1   
     2     1    40 1   
     3     1    41 1   
     4     2     3 ar  
     5     2     7 ar  
     6     3     4 ar  
     7     3    42 1   
     8     4     5 ar  
     9     4    43 1   
    10     5     6 ar  
    11     5     8 1   
    12     6     7 ar  
    13     6    44 1   
    14     7    45 1   
    15     8     9 2   
    16     8    10 2   
    17     8    11 1   
    18    11    12 1   
    19    11    16 1   
    20    12    13 1   
    21    12    46 1   
    22    12    47 1   
    23    13    14 1   
    24    13    15 1   
    25    13    48 1   
    26    14    49 1   
    27    14    50 1   
    28    14    51 1   
    29    15    18 1   
    30    15    52 1   
    31    15    53 1   
    32    16    17 1   
    33    16    54 1   
    34    16    55 1   
    35    17    19 1   
    36    17    20 1   
    37    17    56 1   
    38    18    57 1   
    39    18    58 1   
    40    18    59 1   
    41    19    60 1   
    42    20    21 1   
    43    20    33 1   
    44    20    61 1   
    45    21    22 1   
    46    21    62 1   
    47    22    23 2   
    48    22    24 1   
    49    24    25 1   
    50    25    26 1   
    51    25    32 1   
    52    25    63 1   
    53    26    27 1   
    54    26    64 1   
    55    26    65 1   
    56    27    28 1   
    57    28    29 1   
    58    28    32 1   
    59    28    66 1   
    60    29    30 1   
    61    30    31 1   
    62    30    67 1   
    63    30    68 1   
    64    31    32 1   
    65    31    69 1   
    66    31    70 1   
    67    32    71 1   
    68    33    39 1   
    69    33    72 1   
    70    33    73 1   
    71    34    35 ar  
    72    34    39 ar  
    73    34    78 1   
    74    35    36 ar  
    75    35    74 1   
    76    36    37 ar  
    77    36    75 1   
    78    37    38 ar  
    79    37    76 1   
    80    38    39 ar  
    81    38    77 1   
@<TRIPOS>SUBSTRUCTURE
     1 K13         1 TEMP              0 ****  ****    0 ROOT
