@<TRIPOS>MOLECULE
K14
   80    83     1     0     0
SMALL
No Charge or Current Charge


@<TRIPOS>ATOM
      1 C1          14.8740    36.2300    19.5160 c3         1 K14       0.146900
      2 O1          14.7170    34.9090    18.9680 os         1 K14      -0.343100
      3 C2          15.4780    34.4570    17.9090 ca         1 K14       0.194100
      4 C3          16.4600    35.2530    17.2830 ca         1 K14      -0.193500
      5 C4          17.2040    34.7390    16.2080 ca         1 K14       0.023500
      6 C5          16.9750    33.4240    15.7560 ca         1 K14      -0.361500
      7 C6          15.9880    32.6320    16.3750 ca         1 K14       0.023500
      8 C7          15.2480    33.1530    17.4480 ca         1 K14      -0.193500
      9 S8          17.9340    32.7660    14.3840 sy         1 K14       1.194600
     10 O9          17.2250    31.6340    13.7800 o          1 K14      -0.545500
     11 O10         18.4220    33.8680    13.5470 o          1 K14      -0.545500
     12 N11         19.3060    32.1090    15.1640 n3         1 K14      -0.740500
     13 C12         20.1580    33.1380    15.8230 c3         1 K14       0.202800
     14 C13         21.6080    32.7060    16.1790 c3         1 K14      -0.059700
     15 C14         22.4290    32.3360    14.9180 c3         1 K14      -0.089100
     16 C15         22.3340    33.7600    17.0640 c3         1 K14      -0.075400
     17 C16         19.0090    30.9290    16.0320 c3         1 K14       0.210800
     18 C17         19.8880    29.6710    15.7520 c3         1 K14       0.155300
     19 C18         22.5450    35.1500    16.4220 c3         1 K14      -0.090100
     20 O18         19.7090    28.7020    16.8070 oh         1 K14      -0.672000
     21 C19         19.6290    29.0200    14.3580 c3         1 K14       0.098700
     22 N20         20.6900    28.0610    14.0130 ns         1 K14      -0.502900
     23 C21         21.7020    28.3030    13.1310 c          1 K14       0.635100
     24 O22         21.9080    29.3690    12.5730 o          1 K14      -0.539000
     25 O23         22.3870    27.1360    12.9400 os         1 K14      -0.461100
     26 C24         23.4360    27.1910    11.9280 c5         1 K14       0.160300
     27 C25         24.4610    26.0780    12.2740 c5         1 K14       0.152600
     28 O26         23.8930    24.8890    11.6970 os         1 K14      -0.467000
     29 C27         23.4100    25.2470    10.3920 c5         1 K14       0.368300
     30 O28         22.2210    24.4750    10.1390 os         1 K14      -0.447000
     31 C29         21.1300    25.1580    10.7820 c5         1 K14       0.151600
     32 C30         21.3740    26.6220    10.3530 c5         1 K14      -0.094400
     33 C31         22.9370    26.7370    10.4940 c5         1 K14      -0.141700
     34 C32         18.2390    28.3440    14.1910 c3         1 K14      -0.039100
     35 C33         17.8890    26.3490    12.6420 ca         1 K14      -0.101500
     36 C34         17.7070    25.7970    11.3620 ca         1 K14      -0.116500
     37 C35         17.6780    26.6320    10.2330 ca         1 K14      -0.115000
     38 C36         17.8250    28.0210    10.3850 ca         1 K14      -0.116500
     39 C37         18.0010    28.5740    11.6660 ca         1 K14      -0.101500
     40 C38         18.0380    27.7410    12.8020 ca         1 K14      -0.084300
     41 H1          14.1750    36.3820    20.3480 h1         1 K14       0.048033
     42 H1A         15.8920    36.3760    19.8980 h1         1 K14       0.048033
     43 H1B         14.6680    36.9960    18.7570 h1         1 K14       0.048033
     44 H3          16.6590    36.2680    17.6130 ha         1 K14       0.129000
     45 H4          17.9580    35.3660    15.7330 ha         1 K14       0.133500
     46 H6          15.7880    31.6180    16.0300 ha         1 K14       0.133500
     47 H7          14.4880    32.5410    17.9270 ha         1 K14       0.129000
     48 H12         20.2510    34.0180    15.1740 h1         1 K14       0.052200
     49 H12A        19.6670    33.4820    16.7440 h1         1 K14       0.052200
     50 H13         21.5450    31.8080    16.8030 hc         1 K14       0.043700
     51 H14         23.4400    32.0130    15.1920 hc         1 K14       0.044367
     52 H14A        21.9530    31.5190    14.3660 hc         1 K14       0.044367
     53 H14B        22.5130    33.1900    14.2350 hc         1 K14       0.044367
     54 H15         21.7670    33.8900    17.9950 hc         1 K14       0.038200
     55 H15A        23.3120    33.3610    17.3580 hc         1 K14       0.038200
     56 H16         19.1370    31.2070    17.0870 h1         1 K14       0.063200
     57 H16A        17.9610    30.6180    15.9460 h1         1 K14       0.063200
     58 H17         20.9330    29.9990    15.7560 h1         1 K14       0.054700
     59 H18         23.0650    35.8130    17.1240 hc         1 K14       0.034033
     60 H18A        23.1540    35.0810    15.5130 hc         1 K14       0.034033
     61 H18B        21.5880    35.6210    16.1670 hc         1 K14       0.034033
     62 HO18        20.4180    28.0310    16.7010 ho         1 K14       0.449000
     63 H19         19.6720    29.8380    13.6250 h1         1 K14       0.103700
     64 HN20        20.6180    27.1070    14.3410 hn         1 K14       0.322500
     65 H24         23.9280    28.1730    11.9280 h1         1 K14       0.088700
     66 H25         25.4380    26.2730    11.8100 h1         1 K14       0.062200
     67 H25A        24.6040    25.9450    13.3550 h1         1 K14       0.062200
     68 H27         24.1780    25.0890     9.6230 h2         1 K14       0.082700
     69 H29         20.1710    24.7590    10.4270 h1         1 K14       0.056700
     70 H29A        21.1960    25.0210    11.8710 h1         1 K14       0.056700
     71 H30         21.0730    26.7550     9.3080 hc         1 K14       0.066700
     72 H30A        20.7890    27.3460    10.9260 hc         1 K14       0.066700
     73 H31         23.3800    27.3540     9.7040 hc         1 K14       0.077700
     74 H32         18.1210    27.5690    14.9570 hc         1 K14       0.064200
     75 H32A        17.4460    29.0740    14.3820 hc         1 K14       0.064200
     76 H34         17.5910    24.7220    11.2450 ha         1 K14       0.112000
     77 H35         17.5410    26.2040     9.2420 ha         1 K14       0.110000
     78 H36         17.8010    28.6690     9.5120 ha         1 K14       0.112000
     79 H37         18.1100    29.6510    11.7740 ha         1 K14       0.122000
     80 H33         17.9140    25.6910    13.5080 ha         1 K14       0.122000
@<TRIPOS>BOND
     1     1     2 1   
     2     1    41 1   
     3     1    42 1   
     4     1    43 1   
     5     2     3 1   
     6     3     4 ar  
     7     3     8 ar  
     8     4     5 ar  
     9     4    44 1   
    10     5     6 ar  
    11     5    45 1   
    12     6     7 ar  
    13     6     9 1   
    14     7     8 ar  
    15     7    46 1   
    16     8    47 1   
    17     9    10 2   
    18     9    11 2   
    19     9    12 1   
    20    12    13 1   
    21    12    17 1   
    22    13    14 1   
    23    13    48 1   
    24    13    49 1   
    25    14    15 1   
    26    14    16 1   
    27    14    50 1   
    28    15    51 1   
    29    15    52 1   
    30    15    53 1   
    31    16    19 1   
    32    16    54 1   
    33    16    55 1   
    34    17    18 1   
    35    17    56 1   
    36    17    57 1   
    37    18    20 1   
    38    18    21 1   
    39    18    58 1   
    40    19    59 1   
    41    19    60 1   
    42    19    61 1   
    43    20    62 1   
    44    21    22 1   
    45    21    34 1   
    46    21    63 1   
    47    22    23 1   
    48    22    64 1   
    49    23    24 2   
    50    23    25 1   
    51    25    26 1   
    52    26    27 1   
    53    26    33 1   
    54    26    65 1   
    55    27    28 1   
    56    27    66 1   
    57    27    67 1   
    58    28    29 1   
    59    29    30 1   
    60    29    33 1   
    61    29    68 1   
    62    30    31 1   
    63    31    32 1   
    64    31    69 1   
    65    31    70 1   
    66    32    33 1   
    67    32    71 1   
    68    32    72 1   
    69    33    73 1   
    70    34    40 1   
    71    34    74 1   
    72    34    75 1   
    73    35    36 ar  
    74    35    40 ar  
    75    35    80 1   
    76    36    37 ar  
    77    36    76 1   
    78    37    38 ar  
    79    37    77 1   
    80    38    39 ar  
    81    38    78 1   
    82    39    40 ar  
    83    39    79 1   
@<TRIPOS>SUBSTRUCTURE
     1 K14         1 TEMP              0 ****  ****    0 ROOT
