@<TRIPOS>MOLECULE
K14
   80    83     1     0     0
SMALL
abcg2


@<TRIPOS>ATOM
      1 C1          14.6740    36.3770    18.9600 c3         1 K14       0.146900
      2 O1          14.4970    35.0340    18.4990 os         1 K14      -0.343100
      3 C2          15.3670    34.5410    17.5910 ca         1 K14       0.194100
      4 C3          16.4400    35.2630    17.0590 ca         1 K14      -0.193500
      5 C4          17.2780    34.6630    16.1290 ca         1 K14       0.023500
      6 C5          17.0510    33.3510    15.7250 ca         1 K14      -0.361500
      7 C6          15.9780    32.6280    16.2530 ca         1 K14       0.023500
      8 C7          15.1420    33.2210    17.1780 ca         1 K14      -0.193500
      9 S8          18.1740    32.5720    14.6110 sy         1 K14       1.194600
     10 O9          17.4890    31.4660    13.9820 o          1 K14      -0.545500
     11 O10         18.7640    33.5960    13.7800 o          1 K14      -0.545500
     12 N11         19.3930    31.9310    15.5180 n3         1 K14      -0.740500
     13 C12         20.2880    32.9080    16.1710 c3         1 K14       0.202800
     14 C13         21.7500    32.4570    16.2250 c3         1 K14      -0.059700
     15 C14         22.3200    32.2240    14.8270 c3         1 K14      -0.089100
     16 C15         22.5790    33.4600    17.0470 c3         1 K14      -0.075400
     17 C16         19.0750    30.7300    16.3050 c3         1 K14       0.210800
     18 C17         19.9260    29.5210    15.9130 c3         1 K14       0.155300
     19 C18         22.6770    34.8740    16.4720 c3         1 K14      -0.090100
     20 O18         19.6730    28.5390    16.9190 oh         1 K14      -0.672000
     21 C19         19.6520    29.0030    14.4920 c3         1 K14       0.098700
     22 N20         20.7270    28.1180    14.0690 ns         1 K14      -0.502900
     23 C21         21.5560    28.4090    13.0500 c          1 K14       0.635100
     24 O22         21.5730    29.4530    12.4170 o          1 K14      -0.539000
     25 O23         22.3970    27.3710    12.8200 os         1 K14      -0.461100
     26 C24         23.3040    27.4820    11.7060 c5         1 K14       0.160300
     27 C25         24.5270    26.6450    12.0310 c5         1 K14       0.152600
     28 O26         24.1780    25.3100    11.6600 os         1 K14      -0.467000
     29 C27         23.3790    25.3760    10.4760 c5         1 K14       0.368300
     30 O28         22.3360    24.4440    10.5330 os         1 K14      -0.447000
     31 C29         21.1400    25.1140    10.9860 c5         1 K14       0.151600
     32 C30         21.2460    26.5150    10.3930 c5         1 K14      -0.094400
     33 C31         22.7530    26.7950    10.4410 c5         1 K14      -0.141700
     34 C32         18.2970    28.2980    14.3430 c3         1 K14      -0.039100
     35 C33         17.9950    26.4540    12.6490 ca         1 K14      -0.101500
     36 C34         17.7660    26.0030    11.3520 ca         1 K14      -0.116500
     37 C35         17.5940    26.9150    10.3180 ca         1 K14      -0.115000
     38 C36         17.6490    28.2790    10.5910 ca         1 K14      -0.116500
     39 C37         17.8710    28.7250    11.8890 ca         1 K14      -0.101500
     40 C38         18.0450    27.8170    12.9370 ca         1 K14      -0.084300
     41 H1          13.8720    36.5520    19.6720 h1         1 K14       0.048033
     42 H1A         15.6400    36.4920    19.4560 h1         1 K14       0.048033
     43 H1B         14.5970    37.0850    18.1330 h1         1 K14       0.048033
     44 H3          16.6270    36.2840    17.3550 ha         1 K14       0.129000
     45 H4          18.1010    35.2250    15.7130 ha         1 K14       0.133500
     46 H6          15.7940    31.6130    15.9300 ha         1 K14       0.133500
     47 H7          14.3020    32.6790    17.5930 ha         1 K14       0.129000
     48 H12         20.2280    33.8330    15.6060 h1         1 K14       0.052200
     49 H12A        19.9220    33.1040    17.1850 h1         1 K14       0.052200
     50 H13         21.7940    31.5130    16.7750 hc         1 K14       0.043700
     51 H14         23.3690    31.9230    14.8870 hc         1 K14       0.044367
     52 H14A        21.7750    31.4420    14.3000 hc         1 K14       0.044367
     53 H14B        22.2630    33.1300    14.2200 hc         1 K14       0.044367
     54 H15         22.1570    33.5120    18.0560 hc         1 K14       0.038200
     55 H15A        23.5860    33.0480    17.1550 hc         1 K14       0.038200
     56 H16         19.2580    30.9460    17.3590 h1         1 K14       0.063200
     57 H16A        18.0210    30.4780    16.2050 h1         1 K14       0.063200
     58 H17         20.9780    29.8080    15.9430 h1         1 K14       0.054700
     59 H18         23.3000    35.5000    17.1140 hc         1 K14       0.034033
     60 H18A        23.1240    34.8750    15.4760 hc         1 K14       0.034033
     61 H18B        21.6990    35.3540    16.3990 hc         1 K14       0.034033
     62 HO18        20.3510    27.8550    16.8660 ho         1 K14       0.449000
     63 H19         19.6900    29.8610    13.8250 h1         1 K14       0.103700
     64 HN20        20.7620    27.1800    14.4380 hn         1 K14       0.322500
     65 H24         23.5340    28.5310    11.5460 h1         1 K14       0.088700
     66 H25         25.3830    26.9980    11.4460 h1         1 K14       0.062200
     67 H25A        24.7820    26.6570    13.0890 h1         1 K14       0.062200
     68 H27         24.0010    25.1250     9.6140 h2         1 K14       0.082700
     69 H29         20.2890    24.5420    10.6210 h1         1 K14       0.056700
     70 H29A        21.1140    25.1410    12.0780 h1         1 K14       0.056700
     71 H30         20.9090    26.5060     9.3570 hc         1 K14       0.066700
     72 H30A        20.6450    27.2430    10.9320 hc         1 K14       0.066700
     73 H31         23.0910    27.3500     9.5680 hc         1 K14       0.077700
     74 H32         18.2590    27.4520    15.0310 hc         1 K14       0.064200
     75 H32A        17.5150    28.9970    14.6410 hc         1 K14       0.064200
     76 H34         17.7310    24.9400    11.1500 ha         1 K14       0.112000
     77 H35         17.4230    26.5670     9.3060 ha         1 K14       0.110000
     78 H36         17.5180    28.9980     9.7910 ha         1 K14       0.112000
     79 H37         17.9070    29.7880    12.0970 ha         1 K14       0.122000
     80 H33         18.1380    25.7380    13.4500 ha         1 K14       0.122000
@<TRIPOS>BOND
     1     1     2 1   
     2     1    41 1   
     3     1    42 1   
     4     1    43 1   
     5     2     3 1   
     6     3     4 ar  
     7     3     8 ar  
     8     4     5 ar  
     9     4    44 1   
    10     5     6 ar  
    11     5    45 1   
    12     6     7 ar  
    13     6     9 1   
    14     7     8 ar  
    15     7    46 1   
    16     8    47 1   
    17     9    10 2   
    18     9    11 2   
    19     9    12 1   
    20    12    13 1   
    21    12    17 1   
    22    13    14 1   
    23    13    48 1   
    24    13    49 1   
    25    14    15 1   
    26    14    16 1   
    27    14    50 1   
    28    15    51 1   
    29    15    52 1   
    30    15    53 1   
    31    16    19 1   
    32    16    54 1   
    33    16    55 1   
    34    17    18 1   
    35    17    56 1   
    36    17    57 1   
    37    18    20 1   
    38    18    21 1   
    39    18    58 1   
    40    19    59 1   
    41    19    60 1   
    42    19    61 1   
    43    20    62 1   
    44    21    22 1   
    45    21    34 1   
    46    21    63 1   
    47    22    23 1   
    48    22    64 1   
    49    23    24 2   
    50    23    25 1   
    51    25    26 1   
    52    26    27 1   
    53    26    33 1   
    54    26    65 1   
    55    27    28 1   
    56    27    66 1   
    57    27    67 1   
    58    28    29 1   
    59    29    30 1   
    60    29    33 1   
    61    29    68 1   
    62    30    31 1   
    63    31    32 1   
    64    31    69 1   
    65    31    70 1   
    66    32    33 1   
    67    32    71 1   
    68    32    72 1   
    69    33    73 1   
    70    34    40 1   
    71    34    74 1   
    72    34    75 1   
    73    35    36 ar  
    74    35    40 ar  
    75    35    80 1   
    76    36    37 ar  
    77    36    76 1   
    78    37    38 ar  
    79    37    77 1   
    80    38    39 ar  
    81    38    78 1   
    82    39    40 ar  
    83    39    79 1   
@<TRIPOS>SUBSTRUCTURE
     1 K14         1 TEMP              0 ****  ****    0 ROOT
