@<TRIPOS>MOLECULE
K15
   64    66     1     0     0
SMALL
No Charge or Current Charge


@<TRIPOS>ATOM
      1 O           -2.2180     5.6620    -1.0670 o          1 K15      -0.733000
      2 C           -2.9470     5.2690    -0.1650 c          1 K15       0.694000
      3 CA          -3.5940     3.8270    -0.2920 c3         1 K15       0.010500
      4 N           -4.2630     3.5170    -1.6090 n8         1 K15      -1.002200
      5 CB          -2.5480     2.7400     0.0790 c3         1 K15      -0.054400
      6 CG          -3.1590     1.3390     0.3500 c3         1 K15       0.177800
      7 ND          -2.1790     0.2370     0.6050 n3         1 K15      -0.732600
      8 CE          -2.8230    -1.1070     0.6590 c3         1 K15       0.183800
      9 C11         -3.5570    -1.5500    -0.6300 c3         1 K15      -0.079400
     10 C12         -3.9870    -3.0330    -0.5940 c3         1 K15      -0.075400
     11 C13         -4.7240    -3.4820    -1.8750 c3         1 K15      -0.075400
     12 C14         -5.1510    -4.9650    -1.8390 c3         1 K15      -0.075400
     13 C15         -5.8870    -5.4130    -3.1160 c3         1 K15      -0.087100
     14 C5          -1.3010     0.5010     1.7960 c3         1 K15       0.178800
     15 C4          -0.1520    -0.5170     2.0820 c5         1 K15       0.169300
     16 O4           0.7180    -0.6580     0.9390 os         1 K15      -0.414000
     17 C1           1.9710    -1.2270     1.3870 c5         1 K15       0.321300
     18 C2           1.9720    -1.1270     2.9630 c5         1 K15       0.095300
     19 O2           1.6080    -2.3520     3.6160 oh         1 K15      -0.706000
     20 C3           0.8370    -0.0910     3.2080 c5         1 K15       0.082300
     21 O3           0.3040    -0.2250     4.5420 oh         1 K15      -0.713000
     22 N9           3.0550    -0.5540     0.6700 na         1 K15      -0.315300
     23 C8           3.7080     0.6180     1.0710 cc         1 K15       0.449700
     24 N7           4.6850     0.9550     0.2050 nd         1 K15      -0.528100
     25 C7           4.6230    -0.0540    -0.7600 ca         1 K15      -0.088600
     26 C6           5.4040    -0.2350    -1.9210 ca         1 K15       0.445900
     27 N6           6.4000     0.6180    -2.2810 nv         1 K15      -1.071900
     28 C9           3.6390    -0.9710    -0.4920 ca         1 K15       0.098500
     29 N3           3.4020    -2.0270    -1.2960 nb         1 K15      -0.224000
     30 C10          4.1960    -2.1220    -2.3890 ca         1 K15       0.161900
     31 N1           5.1910    -1.2720    -2.7460 nb         1 K15      -0.320000
     32 OXT         -3.2930     5.9780     0.7700 o          1 K15      -0.733000
     33 H1          -4.3830     3.7830     0.4720 h1         1 K15       0.032700
     34 H2          -4.9860     4.2230    -1.7910 hn         1 K15       0.382500
     35 H3          -3.5840     3.6830    -2.3620 hn         1 K15       0.382500
     36 H5          -1.7960     2.6650    -0.7160 hc         1 K15       0.046200
     37 H6          -2.0270     3.0840     0.9790 hc         1 K15       0.046200
     38 H7          -3.8520     1.4200     1.1980 h1         1 K15       0.029700
     39 H8          -3.7640     1.0900    -0.5290 h1         1 K15       0.029700
     40 H10         -2.0580    -1.8700     0.8470 h1         1 K15       0.016200
     41 H11         -3.5300    -1.1490     1.4990 h1         1 K15       0.016200
     42 H12         -4.4520    -0.9340    -0.7800 hc         1 K15       0.053700
     43 H13         -2.8980    -1.3860    -1.4910 hc         1 K15       0.053700
     44 H14         -3.0990    -3.6620    -0.4520 hc         1 K15       0.030200
     45 H15         -4.6380    -3.1980     0.2730 hc         1 K15       0.030200
     46 H16         -5.6130    -2.8540    -2.0180 hc         1 K15       0.040200
     47 H17         -4.0730    -3.3160    -2.7430 hc         1 K15       0.040200
     48 H18         -4.2650    -5.5960    -1.6990 hc         1 K15       0.033200
     49 H19         -5.8050    -5.1340    -0.9740 hc         1 K15       0.033200
     50 H20         -5.2460    -5.2890    -3.9970 hc         1 K15       0.028367
     51 H21         -6.1700    -6.4700    -3.0440 hc         1 K15       0.028367
     52 H22         -6.8000    -4.8230    -3.2660 hc         1 K15       0.028367
     53 H23         -0.8090     1.4740     1.6860 h1         1 K15       0.044700
     54 H24         -1.9230     0.5630     2.7000 h1         1 K15       0.044700
     55 H25         -0.5900    -1.4970     2.3150 h1         1 K15       0.070700
     56 H26          2.0240    -2.2830     1.0940 h2         1 K15       0.112700
     57 H27          2.9350    -0.7650     3.3490 h1         1 K15       0.072700
     58 H28          1.0050    -2.0350     4.3380 ho         1 K15       0.515000
     59 H29          1.2030     0.9320     3.0340 h1         1 K15       0.061700
     60 H30         -0.0670     0.6510     4.8100 ho         1 K15       0.508000
     61 H31          3.4370     1.1640     1.9670 h5         1 K15       0.111800
     62 H32          6.4260     1.5160    -1.8030 hn         1 K15       0.504500
     63 H33          6.7160     0.6060    -3.2470 hn         1 K15       0.504500
     64 H34          4.0160    -2.9680    -3.0500 h5         1 K15       0.032100
@<TRIPOS>BOND
     1     1     2 1   
     2     2     3 1   
     3     2    32 1   
     4     3     4 1   
     5     3     5 1   
     6     3    33 1   
     7     4    34 1   
     8     4    35 1   
     9     5     6 1   
    10     5    36 1   
    11     5    37 1   
    12     6     7 1   
    13     6    38 1   
    14     6    39 1   
    15     7     8 1   
    16     7    14 1   
    17     8     9 1   
    18     8    40 1   
    19     8    41 1   
    20     9    10 1   
    21     9    42 1   
    22     9    43 1   
    23    10    11 1   
    24    10    44 1   
    25    10    45 1   
    26    11    12 1   
    27    11    46 1   
    28    11    47 1   
    29    12    13 1   
    30    12    48 1   
    31    12    49 1   
    32    13    50 1   
    33    13    51 1   
    34    13    52 1   
    35    14    15 1   
    36    14    53 1   
    37    14    54 1   
    38    15    16 1   
    39    15    20 1   
    40    15    55 1   
    41    16    17 1   
    42    17    18 1   
    43    17    22 1   
    44    17    56 1   
    45    18    19 1   
    46    18    20 1   
    47    18    57 1   
    48    19    58 1   
    49    20    21 1   
    50    20    59 1   
    51    21    60 1   
    52    22    23 1   
    53    22    28 1   
    54    23    24 2   
    55    23    61 1   
    56    24    25 1   
    57    25    26 ar  
    58    25    28 ar  
    59    26    27 1   
    60    26    31 ar  
    61    27    62 1   
    62    27    63 1   
    63    28    29 ar  
    64    29    30 ar  
    65    30    31 ar  
    66    30    64 1   
@<TRIPOS>SUBSTRUCTURE
     1 K15         1 TEMP              0 ****  ****    0 ROOT
