@<TRIPOS>MOLECULE
K15
   64    66     1     0     0
SMALL
bcc


@<TRIPOS>ATOM
      1 O           -1.3450     4.6450    -2.6270 o          1 K15      -0.838300
      2 C           -1.0950     4.0030    -1.5870 c          1 K15       0.904600
      3 CA          -2.2510     3.1950    -0.9410 c3         1 K15       0.010500
      4 N           -3.5370     3.2690    -1.6170 n8         1 K15      -0.891800
      5 CB          -1.8430     1.7370    -0.7610 c3         1 K15      -0.054400
      6 CG          -2.7930     0.9400     0.1200 c3         1 K15       0.177800
      7 ND          -2.2380    -0.3540     0.4800 n3         1 K15      -0.732600
      8 CE          -3.2470    -1.3250     0.8680 c3         1 K15       0.183800
      9 C11         -4.0060    -1.9250    -0.3060 c3         1 K15      -0.079400
     10 C12         -5.0530    -2.9320     0.1540 c3         1 K15      -0.075400
     11 C13         -5.7970    -3.6010    -0.9930 c3         1 K15      -0.075400
     12 C14         -6.8420    -4.6050    -0.5210 c3         1 K15      -0.075400
     13 C15         -7.5740    -5.2850    -1.6690 c3         1 K15      -0.087100
     14 C5          -1.1790    -0.2570     1.4690 c3         1 K15       0.178800
     15 C4          -0.0430    -1.2150     1.1820 c5         1 K15       0.146100
     16 O4           0.6320    -0.8390    -0.0200 os         1 K15      -0.367600
     17 C1           2.0030    -1.0690     0.0790 c5         1 K15       0.268800
     18 C2           2.2550    -1.7370     1.4330 c5         1 K15       0.072100
     19 O2           2.1840    -3.1240     1.2450 oh         1 K15      -0.583800
     20 C3           1.0550    -1.2290     2.2390 c5         1 K15       0.059100
     21 O3           0.6950    -2.0640     3.3040 oh         1 K15      -0.590800
     22 N9           2.7170     0.1990    -0.0350 na         1 K15      -0.286000
     23 C8           2.2380     1.4810    -0.0040 cc         1 K15       0.449700
     24 N7           3.1680     2.3800    -0.1510 nd         1 K15      -0.528100
     25 C7           4.3230     1.6590    -0.2940 ca         1 K15      -0.219200
     26 C6           5.6660     2.0260    -0.4970 ca         1 K15       0.774200
     27 N6           6.0620     3.2970    -0.5780 nv         1 K15      -0.961500
     28 C9           4.0630     0.3000    -0.2310 ca         1 K15       0.426800
     29 N3           4.9520    -0.6850    -0.3450 nb         1 K15      -0.750000
     30 C10          6.1740    -0.2180    -0.5350 ca         1 K15       0.687900
     31 N1           6.5720     1.0490    -0.6150 nb         1 K15      -0.846000
     32 OXT          0.0040     3.9500    -0.9960 o          1 K15      -0.838300
     33 H1          -2.3930     3.6150     0.0650 h1         1 K15       0.032700
     34 H2          -3.7930     4.2440    -1.7220 hn         1 K15       0.327300
     35 H3          -3.4140     2.9420    -2.5690 hn         1 K15       0.327300
     36 H5          -1.7630     1.2460    -1.7370 hc         1 K15       0.046200
     37 H6          -0.8410     1.7200    -0.3370 hc         1 K15       0.046200
     38 H7          -3.0580     1.5310     1.0160 h1         1 K15       0.029700
     39 H8          -3.7280     0.7840    -0.4180 h1         1 K15       0.029700
     40 H10         -2.7490    -2.1460     1.3930 h1         1 K15       0.016200
     41 H11         -3.9590    -0.8930     1.5930 h1         1 K15       0.016200
     42 H12         -4.4970    -1.1410    -0.8920 hc         1 K15       0.053700
     43 H13         -3.2900    -2.4110    -0.9760 hc         1 K15       0.053700
     44 H14         -4.5690    -3.7010     0.7670 hc         1 K15       0.030200
     45 H15         -5.7730    -2.4330     0.8110 hc         1 K15       0.030200
     46 H16         -6.2820    -2.8360    -1.6100 hc         1 K15       0.040200
     47 H17         -5.0780    -4.1060    -1.6470 hc         1 K15       0.040200
     48 H18         -6.3570    -5.3610     0.1040 hc         1 K15       0.033200
     49 H19         -7.5640    -4.0970     0.1250 hc         1 K15       0.033200
     50 H20         -6.8800    -5.8270    -2.3130 hc         1 K15       0.028367
     51 H21         -8.3140    -6.0000    -1.3050 hc         1 K15       0.028367
     52 H22         -8.0970    -4.5570    -2.2910 hc         1 K15       0.028367
     53 H23         -0.7790     0.7590     1.5040 h1         1 K15       0.044700
     54 H24         -1.5480    -0.4610     2.4860 h1         1 K15       0.044700
     55 H25         -0.4450    -2.2310     1.0660 h1         1 K15       0.070700
     56 H26          2.3530    -1.7040    -0.7400 h2         1 K15       0.112700
     57 H27          3.2160    -1.4360     1.8660 h1         1 K15       0.072700
     58 H28          1.8550    -3.5150     2.0640 ho         1 K15       0.416000
     59 H29          1.2560    -0.2050     2.5810 h1         1 K15       0.061700
     60 H30          1.2520    -1.8580     4.0620 ho         1 K15       0.409000
     61 H31          1.1900     1.7050     0.1110 h5         1 K15       0.111800
     62 H32          5.4080     4.0530    -0.4780 hn         1 K15       0.449300
     63 H33          7.0320     3.5200    -0.7190 hn         1 K15       0.449300
     64 H34          6.9580    -0.9600    -0.6420 h5         1 K15       0.032100
@<TRIPOS>BOND
     1     1     2 1   
     2     2     3 1   
     3     2    32 1   
     4     3     4 1   
     5     3     5 1   
     6     3    33 1   
     7     4    34 1   
     8     4    35 1   
     9     5     6 1   
    10     5    36 1   
    11     5    37 1   
    12     6     7 1   
    13     6    38 1   
    14     6    39 1   
    15     7     8 1   
    16     7    14 1   
    17     8     9 1   
    18     8    40 1   
    19     8    41 1   
    20     9    10 1   
    21     9    42 1   
    22     9    43 1   
    23    10    11 1   
    24    10    44 1   
    25    10    45 1   
    26    11    12 1   
    27    11    46 1   
    28    11    47 1   
    29    12    13 1   
    30    12    48 1   
    31    12    49 1   
    32    13    50 1   
    33    13    51 1   
    34    13    52 1   
    35    14    15 1   
    36    14    53 1   
    37    14    54 1   
    38    15    16 1   
    39    15    20 1   
    40    15    55 1   
    41    16    17 1   
    42    17    18 1   
    43    17    22 1   
    44    17    56 1   
    45    18    19 1   
    46    18    20 1   
    47    18    57 1   
    48    19    58 1   
    49    20    21 1   
    50    20    59 1   
    51    21    60 1   
    52    22    23 1   
    53    22    28 1   
    54    23    24 2   
    55    23    61 1   
    56    24    25 1   
    57    25    26 ar  
    58    25    28 ar  
    59    26    27 1   
    60    26    31 ar  
    61    27    62 1   
    62    27    63 1   
    63    28    29 ar  
    64    29    30 ar  
    65    30    31 ar  
    66    30    64 1   
@<TRIPOS>SUBSTRUCTURE
     1 K15         1 TEMP              0 ****  ****    0 ROOT
