@<TRIPOS>MOLECULE
K16
   72    76     1     0     0
SMALL
No Charge or Current Charge


@<TRIPOS>ATOM
      1 C10        188.7300   258.4160   202.9300 ca         1 K16       0.113100
      2 C11        189.9740   258.0450   202.3740 ca         1 K16       0.107100
      3 C12        190.6300   258.9180   201.4760 ca         1 K16      -0.167000
      4 C13        190.0680   260.1720   201.1370 ca         1 K16      -0.068300
      5 C14        190.7840   261.1280   200.1400 c6         1 K16       0.234800
      6 C15        192.3130   261.2600   200.3950 c6         1 K16      -0.066400
      7 C16        193.0250   262.1200   199.3070 c6         1 K16      -0.047700
      8 C17        194.5660   262.2430   199.5990 c3         1 K16      -0.061400
      9 C18        195.3730   260.9140   199.7950 c6         1 K16       0.216800
     10 C19        196.8970   261.1440   199.9980 ca         1 K16      -0.123300
     11 C20        197.3660   262.1810   200.8410 ca         1 K16      -0.136000
     12 C21        198.7510   262.3830   201.0380 ca         1 K16       0.043100
     13 C01        192.2420   265.7840   197.8470 c3         1 K16      -0.090100
     14 C02        192.8990   264.3990   198.0270 c3         1 K16      -0.074400
     15 C03        192.3100   263.5100   199.1770 c6         1 K16      -0.060700
     16 C04        190.7770   263.3080   198.9990 c6         1 K16       0.177800
     17 C06        188.7180   262.4480   200.0030 c6         1 K16       0.175800
     18 C07        188.1260   261.8280   201.2830 c6         1 K16      -0.025100
     19 C08        188.8030   260.5130   201.6710 ca         1 K16      -0.062300
     20 C09        188.1480   259.6490   202.5670 ca         1 K16      -0.172000
     21 C22        199.6720   261.5320   200.4000 ca         1 K16       0.123100
     22 C23        199.2210   260.4860   199.5860 ca         1 K16      -0.116000
     23 C24        197.8430   260.2800   199.3900 ca         1 K16      -0.075300
     24 C25        197.3900   259.1160   198.5050 c6         1 K16      -0.061100
     25 C26        195.8960   258.7870   198.6760 c6         1 K16       0.160800
     26 C30        198.3920   264.3220   202.5380 c3         1 K16       0.156900
     27 C32        191.7830   256.3560   202.2250 c3         1 K16       0.145900
     28 C34        186.8390   257.8380   204.4210 c3         1 K16       0.145900
     29 N05        190.1930   262.4980   200.0960 n3         1 K16      -0.725600
     30 N27        195.1060   260.0290   198.6360 n7         1 K16      -0.851400
     31 O28        201.0110   261.7240   200.5880 oh         1 K16      -0.535100
     32 O29        199.2490   263.3930   201.8470 os         1 K16      -0.368100
     33 O31        190.5170   256.8190   202.7270 os         1 K16      -0.322100
     34 O33        188.1070   257.5440   203.8090 os         1 K16      -0.321100
     35 H1         191.5700   258.6200   201.0290 ha         1 K16       0.120000
     36 H2         190.6620   260.6660   199.1480 h1         1 K16       0.029700
     37 H3         192.7720   260.2670   200.4040 hc         1 K16       0.052700
     38 H4         192.4820   261.6930   201.3900 hc         1 K16       0.052700
     39 H5         192.9250   261.5990   198.3440 hc         1 K16       0.057700
     40 H6         195.0520   262.7920   198.7850 hc         1 K16       0.040700
     41 H7         194.6760   262.8710   200.4890 hc         1 K16       0.040700
     42 H8         195.0010   260.4230   200.7060 h1         1 K16       0.070700
     43 H9         196.6530   262.8200   201.3490 ha         1 K16       0.119000
     44 H10        192.8060   266.3790   197.1190 hc         1 K16       0.031700
     45 H11        191.2140   265.6940   197.4770 hc         1 K16       0.031700
     46 H12        192.2260   266.3330   198.7970 hc         1 K16       0.031700
     47 H13        192.8420   263.8600   197.0730 hc         1 K16       0.037700
     48 H14        193.9620   264.5890   198.2080 hc         1 K16       0.037700
     49 H15        192.4680   264.0690   200.1100 hc         1 K16       0.057700
     50 H16        190.2870   264.2910   198.9810 h1         1 K16       0.029200
     51 H17        190.5830   262.8310   198.0260 h1         1 K16       0.029200
     52 H18        188.2990   263.4570   199.8760 h1         1 K16       0.031700
     53 H19        188.4090   261.8520   199.1310 h1         1 K16       0.031700
     54 H20        188.2330   262.5420   202.1110 hc         1 K16       0.052700
     55 H21        187.0480   261.6740   201.1440 hc         1 K16       0.052700
     56 H22        187.1850   259.9510   202.9680 ha         1 K16       0.116000
     57 H23        199.9440   259.8290   199.1090 ha         1 K16       0.130000
     58 H24        197.9850   258.2190   198.7220 hc         1 K16       0.054200
     59 H25        197.5870   259.3700   197.4540 hc         1 K16       0.054200
     60 H26        195.7310   258.2740   199.6360 h1         1 K16       0.046200
     61 H27        195.5720   258.1100   197.8720 h1         1 K16       0.046200
     62 H28        198.9930   265.0370   203.1130 h1         1 K16       0.041033
     63 H29        197.7770   264.8880   201.8270 h1         1 K16       0.041033
     64 H30        197.7300   263.7960   203.2370 h1         1 K16       0.041033
     65 H31        192.0180   255.3680   202.6410 h1         1 K16       0.037700
     66 H32        191.7600   256.2660   201.1310 h1         1 K16       0.037700
     67 H33        192.5900   257.0440   202.5060 h1         1 K16       0.037700
     68 H34        186.5360   257.0150   205.0810 h1         1 K16       0.038033
     69 H35        186.8990   258.7530   205.0240 h1         1 K16       0.038033
     70 H36        186.0590   257.9670   203.6590 h1         1 K16       0.038033
     71 H38        195.3660   260.5390   197.7860 hn         1 K16       0.409000
     72 H40        201.0960   262.4960   201.1910 ho         1 K16       0.481000
@<TRIPOS>BOND
     1     1     2 ar  
     2     1    20 ar  
     3     1    34 1   
     4     2     3 ar  
     5     2    33 1   
     6     3     4 ar  
     7     3    35 1   
     8     4     5 1   
     9     4    19 ar  
    10     5     6 1   
    11     5    29 1   
    12     5    36 1   
    13     6     7 1   
    14     6    37 1   
    15     6    38 1   
    16     7     8 1   
    17     7    15 1   
    18     7    39 1   
    19     8     9 1   
    20     8    40 1   
    21     8    41 1   
    22     9    10 1   
    23     9    30 1   
    24     9    42 1   
    25    10    11 ar  
    26    10    23 ar  
    27    11    12 ar  
    28    11    43 1   
    29    12    21 ar  
    30    12    32 1   
    31    13    14 1   
    32    13    44 1   
    33    13    45 1   
    34    13    46 1   
    35    14    15 1   
    36    14    47 1   
    37    14    48 1   
    38    15    16 1   
    39    15    49 1   
    40    16    29 1   
    41    16    50 1   
    42    16    51 1   
    43    17    18 1   
    44    17    29 1   
    45    17    52 1   
    46    17    53 1   
    47    18    19 1   
    48    18    54 1   
    49    18    55 1   
    50    19    20 ar  
    51    20    56 1   
    52    21    22 ar  
    53    21    31 1   
    54    22    23 ar  
    55    22    57 1   
    56    23    24 1   
    57    24    25 1   
    58    24    58 1   
    59    24    59 1   
    60    25    30 1   
    61    25    60 1   
    62    25    61 1   
    63    26    32 1   
    64    26    62 1   
    65    26    63 1   
    66    26    64 1   
    67    27    33 1   
    68    27    65 1   
    69    27    66 1   
    70    27    67 1   
    71    28    34 1   
    72    28    68 1   
    73    28    69 1   
    74    28    70 1   
    75    30    71 1   
    76    31    72 1   
@<TRIPOS>SUBSTRUCTURE
     1 K16         1 TEMP              0 ****  ****    0 ROOT
