@<TRIPOS>MOLECULE
K16
   72    76     1     0     0
SMALL
bcc


@<TRIPOS>ATOM
      1 C10        188.8750   258.2160   202.6410 ca         1 K16       0.113100
      2 C11        190.0620   257.9010   201.9470 ca         1 K16       0.107100
      3 C12        190.6620   258.8660   201.1630 ca         1 K16      -0.185000
      4 C13        190.1260   260.1550   201.0400 ca         1 K16      -0.068300
      5 C14        190.8160   261.1620   200.1430 c6         1 K16       0.234800
      6 C15        192.3150   261.2540   200.4150 c6         1 K16      -0.066400
      7 C16        193.0160   262.2150   199.4590 c6         1 K16      -0.047700
      8 C17        194.5020   262.3560   199.8000 c3         1 K16      -0.061400
      9 C18        195.2650   261.0450   199.9390 c6         1 K16       0.216800
     10 C19        196.7460   261.2160   200.2180 ca         1 K16      -0.123300
     11 C20        197.3710   262.4350   200.4740 ca         1 K16      -0.154000
     12 C21        198.7480   262.5030   200.6340 ca         1 K16       0.043100
     13 C01        192.1950   265.8860   198.3170 c3         1 K16      -0.090100
     14 C02        192.8530   264.5110   198.3680 c3         1 K16      -0.074400
     15 C03        192.3050   263.5780   199.4520 c6         1 K16      -0.060700
     16 C04        190.8010   263.3830   199.2840 c6         1 K16       0.177800
     17 C06        188.7990   262.4730   200.2690 c6         1 K16       0.175800
     18 C07        188.2980   261.7990   201.5320 c6         1 K16      -0.025100
     19 C08        188.9470   260.4540   201.7020 ca         1 K16      -0.062300
     20 C09        188.3380   259.4810   202.5030 ca         1 K16      -0.190000
     21 C22        199.5220   261.3400   200.5230 ca         1 K16       0.123100
     22 C23        198.8960   260.1300   200.2690 ca         1 K16      -0.134000
     23 C24        197.5150   260.0580   200.1240 ca         1 K16      -0.075300
     24 C25        196.7920   258.7640   199.9060 c6         1 K16      -0.061100
     25 C26        195.6630   258.8940   198.8580 c6         1 K16       0.160800
     26 C30        198.7460   264.8460   201.0420 c3         1 K16       0.133700
     27 C32        191.7220   256.2840   201.4660 c3         1 K16       0.122700
     28 C34        187.1760   257.4980   204.1210 c3         1 K16       0.122700
     29 N05        190.2470   262.4900   200.2790 n3         1 K16      -0.725600
     30 N27        195.0990   260.2320   198.7360 n7         1 K16      -0.796200
     31 O28        200.8670   261.3700   200.6570 oh         1 K16      -0.496100
     32 O29        199.4510   263.6340   200.8860 os         1 K16      -0.344900
     33 O31        190.5210   256.6430   202.1120 os         1 K16      -0.298900
     34 O33        188.3480   257.2230   203.3840 os         1 K16      -0.297900
     35 H1         191.5660   258.6200   200.6230 ha         1 K16       0.138000
     36 H2         190.6890   260.8080   199.0990 h1         1 K16       0.029700
     37 H3         192.7620   260.2650   200.3150 hc         1 K16       0.052700
     38 H4         192.4630   261.5730   201.4530 hc         1 K16       0.052700
     39 H5         192.9300   261.7930   198.4490 hc         1 K16       0.057700
     40 H6         194.9980   262.9600   199.0340 hc         1 K16       0.040700
     41 H7         194.5890   262.9190   200.7370 hc         1 K16       0.040700
     42 H8         194.8290   260.4740   200.7690 h1         1 K16       0.070700
     43 H9         196.7780   263.3370   200.5480 ha         1 K16       0.137000
     44 H10        192.7160   266.5360   197.6140 hc         1 K16       0.031700
     45 H11        191.1540   265.8380   197.9990 hc         1 K16       0.031700
     46 H12        192.2200   266.3720   199.2950 hc         1 K16       0.031700
     47 H13        192.7550   264.0220   197.3930 hc         1 K16       0.037700
     48 H14        193.9230   264.6550   198.5240 hc         1 K16       0.037700
     49 H15        192.4690   264.0480   200.4310 hc         1 K16       0.057700
     50 H16        190.2910   264.3440   199.3810 h1         1 K16       0.029200
     51 H17        190.5990   263.0210   198.2570 h1         1 K16       0.029200
     52 H18        188.4380   263.5020   200.2270 h1         1 K16       0.031700
     53 H19        188.3970   261.9560   199.3810 h1         1 K16       0.031700
     54 H20        188.5140   262.4400   202.3920 hc         1 K16       0.052700
     55 H21        187.2120   261.6880   201.4910 hc         1 K16       0.052700
     56 H22        187.4160   259.7410   203.0080 ha         1 K16       0.134000
     57 H23        199.5010   259.2330   200.1880 ha         1 K16       0.148000
     58 H24        196.3470   258.4540   200.8570 hc         1 K16       0.054200
     59 H25        197.4840   257.9700   199.6220 hc         1 K16       0.054200
     60 H26        194.8720   258.1860   199.1210 h1         1 K16       0.046200
     61 H27        196.0330   258.5950   197.8770 h1         1 K16       0.046200
     62 H28        199.4890   265.6150   201.2410 h1         1 K16       0.041033
     63 H29        198.1940   265.1170   200.1380 h1         1 K16       0.041033
     64 H30        198.0470   264.8050   201.8820 h1         1 K16       0.041033
     65 H31        191.9220   255.2500   201.7360 h1         1 K16       0.037700
     66 H32        191.6410   256.3530   200.3770 h1         1 K16       0.037700
     67 H33        192.5650   256.9010   201.7920 h1         1 K16       0.037700
     68 H34        186.9330   256.5890   204.6670 h1         1 K16       0.038033
     69 H35        187.3240   258.3100   204.8380 h1         1 K16       0.038033
     70 H36        186.3330   257.7530   203.4720 h1         1 K16       0.038033
     71 H38        195.5590   260.7190   197.9760 hn         1 K16       0.353800
     72 H40        201.1600   262.2720   200.8360 ho         1 K16       0.442000
@<TRIPOS>BOND
     1     1     2 ar  
     2     1    20 ar  
     3     1    34 1   
     4     2     3 ar  
     5     2    33 1   
     6     3     4 ar  
     7     3    35 1   
     8     4     5 1   
     9     4    19 ar  
    10     5     6 1   
    11     5    29 1   
    12     5    36 1   
    13     6     7 1   
    14     6    37 1   
    15     6    38 1   
    16     7     8 1   
    17     7    15 1   
    18     7    39 1   
    19     8     9 1   
    20     8    40 1   
    21     8    41 1   
    22     9    10 1   
    23     9    30 1   
    24     9    42 1   
    25    10    11 ar  
    26    10    23 ar  
    27    11    12 ar  
    28    11    43 1   
    29    12    21 ar  
    30    12    32 1   
    31    13    14 1   
    32    13    44 1   
    33    13    45 1   
    34    13    46 1   
    35    14    15 1   
    36    14    47 1   
    37    14    48 1   
    38    15    16 1   
    39    15    49 1   
    40    16    29 1   
    41    16    50 1   
    42    16    51 1   
    43    17    18 1   
    44    17    29 1   
    45    17    52 1   
    46    17    53 1   
    47    18    19 1   
    48    18    54 1   
    49    18    55 1   
    50    19    20 ar  
    51    20    56 1   
    52    21    22 ar  
    53    21    31 1   
    54    22    23 ar  
    55    22    57 1   
    56    23    24 1   
    57    24    25 1   
    58    24    58 1   
    59    24    59 1   
    60    25    30 1   
    61    25    60 1   
    62    25    61 1   
    63    26    32 1   
    64    26    62 1   
    65    26    63 1   
    66    26    64 1   
    67    27    33 1   
    68    27    65 1   
    69    27    66 1   
    70    27    67 1   
    71    28    34 1   
    72    28    68 1   
    73    28    69 1   
    74    28    70 1   
    75    30    71 1   
    76    31    72 1   
@<TRIPOS>SUBSTRUCTURE
     1 K16         1 TEMP              0 ****  ****    0 ROOT
