@<TRIPOS>MOLECULE
K17
   15    16     1     0     0
SMALL
bcc


@<TRIPOS>ATOM
      1 BR3         -1.7580    -0.3620     2.4620 br         1 K17      -0.048100
      2 C3           0.0590    -0.5650     2.0840 ca         1 K17      -0.003900
      3 C2           0.6100    -0.3500     0.8290 ca         1 K17       0.028100
      4 BR2         -0.5080     0.1700    -0.5780 br         1 K17      -0.028100
      5 C7           0.9160    -0.9510     3.1040 ca         1 K17      -0.063200
      6 N8           0.7190    -1.2370     4.4210 na         1 K17      -0.247300
      7 C9           1.9280    -1.5570     4.9390 cc         1 K17       0.428700
      8 N5           2.8960    -1.5010     4.0680 nd         1 K17      -0.550100
      9 C6           2.2920    -1.1230     2.9040 ca         1 K17       0.089400
     10 C4           2.8380    -0.9050     1.6410 ca         1 K17       0.060100
     11 BR4          4.6740    -1.1500     1.4280 br         1 K17      -0.018100
     12 C1           1.9960    -0.5200     0.6070 ca         1 K17      -0.012900
     13 BR1          2.7110    -0.2250    -1.0990 br         1 K17      -0.031100
     14 HN8         -0.1540    -1.2280     4.9270 hn         1 K17       0.322700
     15 H9           2.0380    -1.8260     5.9780 h5         1 K17       0.071800
@<TRIPOS>BOND
     1     1     2 1   
     2     2     3 ar  
     3     2     5 ar  
     4     3     4 1   
     5     3    12 ar  
     6     5     6 1   
     7     5     9 ar  
     8     6     7 1   
     9     6    14 1   
    10     7     8 2   
    11     7    15 1   
    12     8     9 1   
    13     9    10 ar  
    14    10    11 1   
    15    10    12 ar  
    16    12    13 1   
@<TRIPOS>SUBSTRUCTURE
     1 K17         1 TEMP              0 ****  ****    0 ROOT
