@<TRIPOS>MOLECULE
K17
   15    16     1     0     0
SMALL
No Charge or Current Charge


@<TRIPOS>ATOM
      1 Br3         -1.8080    -0.3600     2.4750 br         1 K17      -0.048100
      2 C3           0.0640    -0.5710     2.1000 ca         1 K17      -0.003900
      3 C2           0.6020    -0.3450     0.8110 ca         1 K17       0.028100
      4 Br2         -0.5580     0.1900    -0.6290 br         1 K17      -0.028100
      5 C7           0.9460    -0.9580     3.1160 ca         1 K17      -0.063200
      6 N8           0.7090    -1.2380     4.4280 na         1 K17      -0.297600
      7 C9           1.9300    -1.5740     5.0050 cc         1 K17       0.428700
      8 N5           2.9250    -1.5140     4.0930 nd         1 K17      -0.550100
      9 C6           2.2850    -1.1250     2.9150 ca         1 K17       0.089400
     10 C4           2.8490    -0.9090     1.6450 ca         1 K17       0.060100
     11 Br4          4.7390    -1.1490     1.3840 br         1 K17      -0.018100
     12 C1           1.9960    -0.5140     0.5830 ca         1 K17      -0.012900
     13 Br1          2.7320    -0.2080    -1.1690 br         1 K17      -0.031100
     14 HN8         -0.1820    -1.2110     4.9080 hn         1 K17       0.373000
     15 H9           2.0280    -1.8430     6.0500 h5         1 K17       0.071800
@<TRIPOS>BOND
     1     1     2 1   
     2     2     3 ar  
     3     2     5 ar  
     4     3     4 1   
     5     3    12 ar  
     6     5     6 1   
     7     5     9 ar  
     8     6     7 1   
     9     6    14 1   
    10     7     8 2   
    11     7    15 1   
    12     8     9 1   
    13     9    10 ar  
    14    10    11 1   
    15    10    12 ar  
    16    12    13 1   
@<TRIPOS>SUBSTRUCTURE
     1 K17         1 TEMP              0 ****  ****    0 ROOT
