@<TRIPOS>MOLECULE
K18
   44    46     1     0     0
SMALL
bcc


@<TRIPOS>ATOM
      1 N3          14.8980    34.8340   -16.1890 na         1 K18       0.101400
      2 C6          16.2480    34.8880   -16.1650 cc         1 K18      -0.072600
      3 C7          16.6820    33.6290   -16.5150 cd         1 K18      -0.316300
      4 C10         13.8680    40.9870   -12.8850 cc         1 K18      -0.317300
      5 C13         10.4360    40.7750   -11.8830 ca         1 K18       0.007800
      6 C15         13.9760    35.8710   -15.8000 c3         1 K18       0.029300
      7 C17         13.5570    35.7300   -14.3340 c3         1 K18       0.095000
      8 C20          9.4500    41.6550   -12.3140 ca         1 K18      -0.127000
      9 C21         10.1020    39.6450   -11.1440 ca         1 K18      -0.127000
     10 C22          8.7680    39.3900   -10.8540 ca         1 K18      -0.120000
     11 C24          7.7790    40.2670   -11.2780 ca         1 K18      -0.125000
     12 C1          12.7050    40.2520   -12.7870 cd         1 K18       0.080300
     13 N2          11.7880    41.0550   -12.1840 na         1 K18       0.124300
     14 N4          14.4390    33.6200   -16.5110 nc         1 K18      -0.536800
     15 N5          12.3600    38.9840   -13.2030 ns         1 K18      -0.488100
     16 N8          12.2870    42.2760   -11.9150 nd         1 K18      -0.511800
     17 C9          13.2800    38.0060   -13.5170 c          1 K18       0.800100
     18 C11         15.5090    32.8760   -16.7200 cd         1 K18       0.328600
     19 C12         13.5330    42.2300   -12.3240 cc         1 K18       0.323200
     20 O14         14.4830    38.1930   -13.4430 o          1 K18      -0.612100
     21 N16         12.7330    36.8290   -13.8980 ns         1 K18      -0.590900
     22 C18         17.0090    36.1200   -15.8260 c3         1 K18      -0.037800
     23 C19         15.3920    31.4460   -17.1210 c3         1 K18      -0.119400
     24 C23          8.1240    41.4010   -12.0020 ca         1 K18      -0.120000
     25 H1          17.7040    33.3010   -16.6120 ha         1 K18       0.161000
     26 H2          14.8070    40.6850   -13.3100 ha         1 K18       0.186000
     27 H3          14.4520    36.8370   -15.9610 h1         1 K18       0.070200
     28 H4          13.1030    35.8230   -16.4510 h1         1 K18       0.070200
     29 H5          12.9920    34.8080   -14.2000 h1         1 K18       0.072200
     30 H6          14.4430    35.6610   -13.7030 h1         1 K18       0.072200
     31 H7           9.7230    42.5310   -12.8870 ha         1 K18       0.151000
     32 H8          10.8740    38.9780   -10.7850 ha         1 K18       0.151000
     33 H9           8.5070    38.5110   -10.2810 ha         1 K18       0.138000
     34 H10          6.7420    40.0690   -11.0420 ha         1 K18       0.137000
     35 H11         11.3750    38.7830   -13.3070 hn         1 K18       0.325500
     36 H12         14.1720    43.0920   -12.2090 h4         1 K18       0.038100
     37 H13         11.7350    36.7270   -13.9800 hn         1 K18       0.317500
     38 H14         16.7360    36.5140   -14.8460 hc         1 K18       0.055700
     39 H15         18.0750    35.9040   -15.8140 hc         1 K18       0.055700
     40 H16         16.8390    36.9140   -16.5560 hc         1 K18       0.055700
     41 H17         14.3480    31.1390   -17.1670 hc         1 K18       0.045367
     42 H18         15.8370    31.2690   -18.1020 hc         1 K18       0.045367
     43 H19         15.9050    30.7920   -16.4140 hc         1 K18       0.045367
     44 H20          7.3570    42.0880   -12.3330 ha         1 K18       0.138000
@<TRIPOS>BOND
     1     1     2 1   
     2     1     6 1   
     3     1    14 1   
     4     2     3 2   
     5     2    22 1   
     6     3    18 1   
     7     3    25 1   
     8     4    12 2   
     9     4    19 1   
    10     4    26 1   
    11     5     8 ar  
    12     5     9 ar  
    13     5    13 1   
    14     6     7 1   
    15     6    27 1   
    16     6    28 1   
    17     7    21 1   
    18     7    29 1   
    19     7    30 1   
    20     8    24 ar  
    21     8    31 1   
    22     9    10 ar  
    23     9    32 1   
    24    10    11 ar  
    25    10    33 1   
    26    11    24 ar  
    27    11    34 1   
    28    12    13 1   
    29    12    15 1   
    30    13    16 1   
    31    14    18 2   
    32    15    17 1   
    33    15    35 1   
    34    16    19 2   
    35    17    20 2   
    36    17    21 1   
    37    18    23 1   
    38    19    36 1   
    39    21    37 1   
    40    22    38 1   
    41    22    39 1   
    42    22    40 1   
    43    23    41 1   
    44    23    42 1   
    45    23    43 1   
    46    24    44 1   
@<TRIPOS>SUBSTRUCTURE
     1 K18         1 TEMP              0 ****  ****    0 ROOT
