@<TRIPOS>MOLECULE
K18
   44    46     1     0     0
SMALL
No Charge or Current Charge


@<TRIPOS>ATOM
      1 N3          14.8490    34.8330   -16.1140 na         1 K18       0.122800
      2 C6          16.2420    34.7310   -16.0950 cc         1 K18      -0.123300
      3 C7          16.4770    33.5120   -16.6590 cd         1 K18      -0.233000
      4 C10         13.8110    41.2330   -12.6800 cc         1 K18      -0.234000
      5 C13         10.4370    40.8630   -11.9340 ca         1 K18       0.007800
      6 C15         14.0460    35.9600   -15.6110 c3         1 K18       0.058600
      7 C17         13.7200    35.8310   -14.1100 c3         1 K18       0.095000
      8 C20          9.4390    41.1290   -12.8910 ca         1 K18      -0.109000
      9 C21         10.1220    40.0960   -10.7950 ca         1 K18      -0.109000
     10 C22          8.8200    39.5960   -10.6170 ca         1 K18      -0.102000
     11 C24          7.8280    39.8620   -11.5760 ca         1 K18      -0.107000
     12 C1          12.6940    40.4580   -12.5990 cd         1 K18       0.029600
     13 N2          11.7300    41.3510   -12.1170 na         1 K18       0.175000
     14 N4          14.2210    33.7300   -16.6610 nc         1 K18      -0.536800
     15 N5          12.5360    39.1140   -12.9170 ns         1 K18      -0.421100
     16 N8          12.1720    42.6440   -11.9020 nd         1 K18      -0.511800
     17 C9          13.4710    38.2250   -13.3890 c          1 K18       0.666100
     18 C11         15.2300    32.9460   -16.9840 cd         1 K18       0.263300
     19 C12         13.4410    42.5250   -12.2530 cc         1 K18       0.257900
     20 O14         14.6400    38.4970   -13.6060 o          1 K18      -0.612100
     21 N16         12.9510    36.9730   -13.5950 ns         1 K18      -0.523900
     22 C18         17.2060    35.7590   -15.5640 c3         1 K18      -0.037800
     23 C19         14.9920    31.6080   -17.6240 c3         1 K18      -0.119400
     24 C23          8.1370    40.6290   -12.7130 ca         1 K18      -0.102000
     25 H1          17.4470    33.0570   -16.8270 ha         1 K18       0.143000
     26 H2          14.8040    40.9500   -13.0080 ha         1 K18       0.168000
     27 H3          14.5990    36.8890   -15.7910 h1         1 K18       0.070200
     28 H4          13.1120    36.0120   -16.1830 h1         1 K18       0.070200
     29 H5          13.1430    34.9110   -13.9440 h1         1 K18       0.072200
     30 H6          14.6550    35.7460   -13.5390 h1         1 K18       0.072200
     31 H7           9.6750    41.7220   -13.7730 ha         1 K18       0.133000
     32 H8          10.8870    39.8880   -10.0490 ha         1 K18       0.133000
     33 H9           8.5800    39.0030    -9.7360 ha         1 K18       0.120000
     34 H10          6.8200    39.4750   -11.4380 ha         1 K18       0.119000
     35 H11         11.6170    38.7110   -12.7950 hn         1 K18       0.325500
     36 H12         14.0800    43.3960   -12.1910 h4         1 K18       0.038100
     37 H13         11.9710    36.8320   -13.3820 hn         1 K18       0.317500
     38 H14         16.9990    35.9870   -14.5120 hc         1 K18       0.055700
     39 H15         18.2400    35.3990   -15.6320 hc         1 K18       0.055700
     40 H16         17.1370    36.6920   -16.1350 hc         1 K18       0.055700
     41 H17         14.3880    30.9640   -16.9740 hc         1 K18       0.045367
     42 H18         14.4640    31.7180   -18.5790 hc         1 K18       0.045367
     43 H19         15.9380    31.0920   -17.8220 hc         1 K18       0.045367
     44 H20          7.3680    40.8360   -13.4550 ha         1 K18       0.120000
@<TRIPOS>BOND
     1     1     2 1   
     2     1     6 1   
     3     1    14 1   
     4     2     3 2   
     5     2    22 1   
     6     3    18 1   
     7     3    25 1   
     8     4    12 2   
     9     4    19 1   
    10     4    26 1   
    11     5     8 ar  
    12     5     9 ar  
    13     5    13 1   
    14     6     7 1   
    15     6    27 1   
    16     6    28 1   
    17     7    21 1   
    18     7    29 1   
    19     7    30 1   
    20     8    24 ar  
    21     8    31 1   
    22     9    10 ar  
    23     9    32 1   
    24    10    11 ar  
    25    10    33 1   
    26    11    24 ar  
    27    11    34 1   
    28    12    13 1   
    29    12    15 1   
    30    13    16 1   
    31    14    18 2   
    32    15    17 1   
    33    15    35 1   
    34    16    19 2   
    35    17    20 2   
    36    17    21 1   
    37    18    23 1   
    38    19    36 1   
    39    21    37 1   
    40    22    38 1   
    41    22    39 1   
    42    22    40 1   
    43    23    41 1   
    44    23    42 1   
    45    23    43 1   
    46    24    44 1   
@<TRIPOS>SUBSTRUCTURE
     1 K18         1 TEMP              0 ****  ****    0 ROOT
