@<TRIPOS>MOLECULE
K19
   78    82     1     0     0
SMALL
abcg2


@<TRIPOS>ATOM
      1 C1          14.9690    36.1020    18.7160 cc         1 K19       0.405100
      2 N1          14.5170    34.9050    18.5310 nd         1 K19      -0.528100
      3 S1          16.3680    36.5630    17.7840 ss         1 K19       0.040800
      4 C2          15.2840    34.2330    17.5960 ca         1 K19       0.133400
      5 C3          16.3590    34.9830    17.0650 ca         1 K19      -0.210000
      6 C4          17.2200    34.4480    16.1150 ca         1 K19       0.032000
      7 C5          16.9850    33.1430    15.7050 ca         1 K19      -0.306500
      8 C6          15.9210    32.3820    16.2150 ca         1 K19      -0.029000
      9 C7          15.0690    32.9230    17.1580 ca         1 K19      -0.070000
     10 S8          18.1260    32.3880    14.5780 sy         1 K19       1.190600
     11 O9          18.7090    33.4330    13.7700 o          1 K19      -0.540500
     12 O10         17.4510    31.2890    13.9310 o          1 K19      -0.540500
     13 N11         19.3340    31.7530    15.4960 n3         1 K19      -0.744500
     14 C12         20.2230    32.7300    16.1600 c3         1 K19       0.203800
     15 C13         21.6860    32.2890    16.2120 c3         1 K19      -0.059700
     16 C14         22.2600    32.0710    14.8130 c3         1 K19      -0.089100
     17 C15         22.5060    33.2940    17.0420 c3         1 K19      -0.075400
     18 C16         19.0220    30.5390    16.2670 c3         1 K19       0.211800
     19 C17         19.8850    29.3430    15.8670 c3         1 K19       0.154300
     20 C18         22.5980    34.7100    16.4730 c3         1 K19      -0.090100
     21 O18         19.6400    28.3510    16.8650 oh         1 K19      -0.671000
     22 C19         19.6190    28.8310    14.4420 c3         1 K19       0.098700
     23 N20         20.6980    27.9510    14.0210 ns         1 K19      -0.503900
     24 C21         21.5340    28.2510    13.0100 c          1 K19       0.636100
     25 O22         21.5540    29.2990    12.3860 o          1 K19      -0.538000
     26 O23         22.3780    27.2150    12.7800 os         1 K19      -0.461100
     27 C24         23.2910    27.3340    11.6700 c5         1 K19       0.159300
     28 C25         24.5140    26.4980    11.9980 c5         1 K19       0.152600
     29 O26         24.1710    25.1640    11.6180 os         1 K19      -0.467000
     30 C27         23.3760    25.2330    10.4310 c5         1 K19       0.368300
     31 O28         22.3350    24.2990    10.4810 os         1 K19      -0.447000
     32 C29         21.1340    24.9650    10.9300 c5         1 K19       0.151600
     33 C30         21.2410    26.3680    10.3430 c5         1 K19      -0.095400
     34 C31         22.7480    26.6510    10.3990 c5         1 K19      -0.141700
     35 C32         18.2670    28.1230    14.2840 c3         1 K19      -0.039100
     36 C33         17.8540    28.5610    11.8290 ca         1 K19      -0.101500
     37 C34         17.6400    28.1200    10.5280 ca         1 K19      -0.115500
     38 C35         17.5880    26.7570    10.2480 ca         1 K19      -0.114000
     39 C36         17.7550    25.8410    11.2800 ca         1 K19      -0.115500
     40 C37         17.9760    26.2860    12.5800 ca         1 K19      -0.101500
     41 C38         18.0240    27.6480    12.8740 ca         1 K19      -0.085300
     42 H1          14.5300    36.8130    19.4040 h5         1 K19       0.064800
     43 H4          18.0350    35.0250    15.7020 ha         1 K19       0.144000
     44 H6          15.7640    31.3750    15.8570 ha         1 K19       0.139000
     45 H7          14.2410    32.3510    17.5560 ha         1 K19       0.140000
     46 H12         20.1570    33.6600    15.6040 h1         1 K19       0.053200
     47 H12A        19.8510    32.9130    17.1740 h1         1 K19       0.053200
     48 H13         21.7370    31.3420    16.7560 hc         1 K19       0.044700
     49 H14         23.3130    31.7860    14.8710 hc         1 K19       0.044367
     50 H14A        21.7280    31.2830    14.2820 hc         1 K19       0.044367
     51 H14B        22.1890    32.9790    14.2110 hc         1 K19       0.044367
     52 H15         22.0800    33.3380    18.0500 hc         1 K19       0.039200
     53 H15A        23.5150    32.8870    17.1530 hc         1 K19       0.039200
     54 H16         19.1970    30.7470    17.3240 h1         1 K19       0.064200
     55 H16A        17.9710    30.2800    16.1580 h1         1 K19       0.064200
     56 H17         20.9350    29.6400    15.9020 h1         1 K19       0.055700
     57 H18         23.2120    35.3380    17.1220 hc         1 K19       0.034700
     58 H18A        23.0530    34.7180    15.4810 hc         1 K19       0.034700
     59 H18B        21.6170    35.1830    16.3940 hc         1 K19       0.034700
     60 HO18        20.3260    27.6740    16.8100 ho         1 K19       0.451000
     61 H19         19.6580    29.6920    13.7790 h1         1 K19       0.102700
     62 HN20        20.7300    27.0090    14.3820 hn         1 K19       0.323500
     63 H24         23.5190    28.3840    11.5160 h1         1 K19       0.089700
     64 H25         25.3730    26.8560    11.4200 h1         1 K19       0.062200
     65 H25A        24.7620    26.5060    13.0580 h1         1 K19       0.062200
     66 H27         24.0020    24.9870     9.5710 h2         1 K19       0.082700
     67 H29         20.2870    24.3930    10.5580 h1         1 K19       0.056700
     68 H29A        21.1030    24.9880    12.0210 h1         1 K19       0.056700
     69 H30         20.9090    26.3630     9.3040 hc         1 K19       0.066200
     70 H30A        20.6360    27.0940    10.8800 hc         1 K19       0.066200
     71 H31         23.0890    27.2100     9.5310 hc         1 K19       0.077700
     72 H32         18.2270    27.2740    14.9670 hc         1 K19       0.064200
     73 H32A        17.4810    28.8180    14.5810 hc         1 K19       0.064200
     74 H34         17.5130    28.8420     9.7300 ha         1 K19       0.112500
     75 H35         17.4230    26.4140     9.2350 ha         1 K19       0.111000
     76 H36         17.7230    24.7780    11.0730 ha         1 K19       0.112500
     77 H37         18.1150    25.5670    13.3790 ha         1 K19       0.122000
     78 H33         17.8870    29.6220    12.0410 ha         1 K19       0.122000
@<TRIPOS>BOND
     1     1     2 2   
     2     1     3 1   
     3     1    42 1   
     4     2     4 1   
     5     3     5 1   
     6     4     5 ar  
     7     4     9 ar  
     8     5     6 ar  
     9     6     7 ar  
    10     6    43 1   
    11     7     8 ar  
    12     7    10 1   
    13     8     9 ar  
    14     8    44 1   
    15     9    45 1   
    16    10    11 2   
    17    10    12 2   
    18    10    13 1   
    19    13    14 1   
    20    13    18 1   
    21    14    15 1   
    22    14    46 1   
    23    14    47 1   
    24    15    16 1   
    25    15    17 1   
    26    15    48 1   
    27    16    49 1   
    28    16    50 1   
    29    16    51 1   
    30    17    20 1   
    31    17    52 1   
    32    17    53 1   
    33    18    19 1   
    34    18    54 1   
    35    18    55 1   
    36    19    21 1   
    37    19    22 1   
    38    19    56 1   
    39    20    57 1   
    40    20    58 1   
    41    20    59 1   
    42    21    60 1   
    43    22    23 1   
    44    22    35 1   
    45    22    61 1   
    46    23    24 1   
    47    23    62 1   
    48    24    25 2   
    49    24    26 1   
    50    26    27 1   
    51    27    28 1   
    52    27    34 1   
    53    27    63 1   
    54    28    29 1   
    55    28    64 1   
    56    28    65 1   
    57    29    30 1   
    58    30    31 1   
    59    30    34 1   
    60    30    66 1   
    61    31    32 1   
    62    32    33 1   
    63    32    67 1   
    64    32    68 1   
    65    33    34 1   
    66    33    69 1   
    67    33    70 1   
    68    34    71 1   
    69    35    41 1   
    70    35    72 1   
    71    35    73 1   
    72    36    37 ar  
    73    36    41 ar  
    74    36    78 1   
    75    37    38 ar  
    76    37    74 1   
    77    38    39 ar  
    78    38    75 1   
    79    39    40 ar  
    80    39    76 1   
    81    40    41 ar  
    82    40    77 1   
@<TRIPOS>SUBSTRUCTURE
     1 K19         1 TEMP              0 ****  ****    0 ROOT
