@<TRIPOS>MOLECULE
K19
   78    82     1     0     0
SMALL
No Charge or Current Charge


@<TRIPOS>ATOM
      1 C1          15.2460    36.0440    19.1640 cc         1 K19       0.405100
      2 N1          14.7630    34.7970    19.0310 nd         1 K19      -0.528100
      3 S1          16.5160    36.5860    18.0460 ss         1 K19       0.040800
      4 C2          15.4380    34.2080    17.9680 ca         1 K19       0.133400
      5 C3          16.3850    34.9860    17.3340 ca         1 K19      -0.210000
      6 C4          17.1350    34.5110    16.2480 ca         1 K19       0.032000
      7 C5          16.9120    33.1910    15.8010 ca         1 K19      -0.306500
      8 C6          15.9370    32.3870    16.4400 ca         1 K19      -0.029000
      9 C7          15.2000    32.8980    17.5270 ca         1 K19      -0.070000
     10 S8          17.8680    32.5450    14.4180 sy         1 K19       1.190600
     11 O9          18.3430    33.6520    13.5820 o          1 K19      -0.540500
     12 O10         17.1630    31.4100    13.8130 o          1 K19      -0.540500
     13 N11         19.2500    31.8940    15.1840 n3         1 K19      -0.744500
     14 C12         20.0930    32.9240    15.8540 c3         1 K19       0.203800
     15 C13         21.5500    32.5060    16.1960 c3         1 K19      -0.059700
     16 C14         22.3690    32.1670    14.9250 c3         1 K19      -0.089100
     17 C15         22.2660    33.5560    17.0930 c3         1 K19      -0.075400
     18 C16         18.9730    30.6980    16.0370 c3         1 K19       0.211800
     19 C17         19.8650    29.4550    15.7330 c3         1 K19       0.154300
     20 C18         22.4530    34.9590    16.4720 c3         1 K19      -0.090100
     21 O18         19.7050    28.4690    16.7740 oh         1 K19      -0.671000
     22 C19         19.6040    28.8210    14.3300 c3         1 K19       0.098700
     23 N20         20.6740    27.8800    13.9640 ns         1 K19      -0.503900
     24 C21         21.6780    28.1490    13.0810 c          1 K19       0.636100
     25 O22         21.8690    29.2270    12.5410 o          1 K19      -0.538000
     26 O23         22.3760    26.9930    12.8670 os         1 K19      -0.461100
     27 C24         23.4180    27.0770    11.8500 c5         1 K19       0.159300
     28 C25         24.4580    25.9700    12.1710 c5         1 K19       0.152600
     29 O26         23.9000    24.7850    11.5780 os         1 K19      -0.467000
     30 C27         23.4040    25.1590    10.2820 c5         1 K19       0.368300
     31 O28         22.2230    24.3780    10.0230 os         1 K19      -0.447000
     32 C29         21.1290    25.0380    10.6840 c5         1 K19       0.151600
     33 C30         21.3530    26.5110    10.2780 c5         1 K19      -0.095400
     34 C31         22.9160    26.6420    10.4110 c5         1 K19      -0.141700
     35 C32         18.2220    28.1290    14.1640 c3         1 K19      -0.039100
     36 C33         17.9620    28.3940    11.6440 ca         1 K19      -0.101500
     37 C34         17.7840    27.8580    10.3570 ca         1 K19      -0.115500
     38 C35         17.6540    26.4710    10.1840 ca         1 K19      -0.114000
     39 C36         17.7010    25.6190    11.3000 ca         1 K19      -0.115500
     40 C37         17.8850    26.1530    12.5870 ca         1 K19      -0.101500
     41 C38         18.0170    27.5450    12.7670 ca         1 K19      -0.085300
     42 H1          14.9030    36.7410    19.9180 h5         1 K19       0.064800
     43 H4          17.8730    35.1540    15.7700 ha         1 K19       0.144000
     44 H6          15.7440    31.3710    16.0990 ha         1 K19       0.139000
     45 H7          14.4520    32.2820    18.0200 ha         1 K19       0.140000
     46 H12         20.1710    33.8140    15.2170 h1         1 K19       0.053200
     47 H12A        19.6020    33.2490    16.7820 h1         1 K19       0.053200
     48 H13         21.5020    31.5980    16.8060 hc         1 K19       0.044700
     49 H14         23.3850    31.8520    15.1890 hc         1 K19       0.044367
     50 H14A        21.8990    31.3520    14.3630 hc         1 K19       0.044367
     51 H14B        22.4380    33.0320    14.2550 hc         1 K19       0.044367
     52 H15         21.7040    33.6630    18.0290 hc         1 K19       0.039200
     53 H15A        23.2520    33.1660    17.3760 hc         1 K19       0.039200
     54 H16         19.1050    30.9610    17.0950 h1         1 K19       0.064200
     55 H16A        17.9280    30.3750    15.9540 h1         1 K19       0.064200
     56 H17         20.9060    29.7960    15.7330 h1         1 K19       0.055700
     57 H18         22.9700    35.6170    17.1810 hc         1 K19       0.034700
     58 H18A        23.0570    34.9130    15.5590 hc         1 K19       0.034700
     59 H18B        21.4880    35.4200    16.2310 hc         1 K19       0.034700
     60 HO18        20.4210    27.8070    16.6530 ho         1 K19       0.451000
     61 H19         19.6310    29.6500    13.6100 h1         1 K19       0.102700
     62 HN20        20.6150    26.9200    14.2760 hn         1 K19       0.323500
     63 H24         23.8990    28.0660    11.8630 h1         1 K19       0.089700
     64 H25         25.4290    26.1850    11.7040 h1         1 K19       0.062200
     65 H25A        24.6090    25.8220    13.2490 h1         1 K19       0.062200
     66 H27         24.1700    25.0230     9.5060 h2         1 K19       0.082700
     67 H29         20.1720    24.6340    10.3270 h1         1 K19       0.056700
     68 H29A        21.2020    24.8840    11.7690 h1         1 K19       0.056700
     69 H30         21.0450    26.6570     9.2360 hc         1 K19       0.066200
     70 H30A        20.7640    27.2190    10.8660 hc         1 K19       0.066200
     71 H31         23.3470    27.2770     9.6290 hc         1 K19       0.077700
     72 H32         18.1190    27.3410    14.9190 hc         1 K19       0.064200
     73 H32A        17.4200    28.8450    14.3720 hc         1 K19       0.064200
     74 H34         17.7460    28.5200     9.4940 ha         1 K19       0.112500
     75 H35         17.5140    26.0560     9.1880 ha         1 K19       0.111000
     76 H36         17.5980    24.5440    11.1680 ha         1 K19       0.112500
     77 H37         17.9240    25.4830    13.4430 ha         1 K19       0.122000
     78 H33         18.0580    29.4710    11.7680 ha         1 K19       0.122000
@<TRIPOS>BOND
     1     1     2 2   
     2     1     3 1   
     3     1    42 1   
     4     2     4 1   
     5     3     5 1   
     6     4     5 ar  
     7     4     9 ar  
     8     5     6 ar  
     9     6     7 ar  
    10     6    43 1   
    11     7     8 ar  
    12     7    10 1   
    13     8     9 ar  
    14     8    44 1   
    15     9    45 1   
    16    10    11 2   
    17    10    12 2   
    18    10    13 1   
    19    13    14 1   
    20    13    18 1   
    21    14    15 1   
    22    14    46 1   
    23    14    47 1   
    24    15    16 1   
    25    15    17 1   
    26    15    48 1   
    27    16    49 1   
    28    16    50 1   
    29    16    51 1   
    30    17    20 1   
    31    17    52 1   
    32    17    53 1   
    33    18    19 1   
    34    18    54 1   
    35    18    55 1   
    36    19    21 1   
    37    19    22 1   
    38    19    56 1   
    39    20    57 1   
    40    20    58 1   
    41    20    59 1   
    42    21    60 1   
    43    22    23 1   
    44    22    35 1   
    45    22    61 1   
    46    23    24 1   
    47    23    62 1   
    48    24    25 2   
    49    24    26 1   
    50    26    27 1   
    51    27    28 1   
    52    27    34 1   
    53    27    63 1   
    54    28    29 1   
    55    28    64 1   
    56    28    65 1   
    57    29    30 1   
    58    30    31 1   
    59    30    34 1   
    60    30    66 1   
    61    31    32 1   
    62    32    33 1   
    63    32    67 1   
    64    32    68 1   
    65    33    34 1   
    66    33    69 1   
    67    33    70 1   
    68    34    71 1   
    69    35    41 1   
    70    35    72 1   
    71    35    73 1   
    72    36    37 ar  
    73    36    41 ar  
    74    36    78 1   
    75    37    38 ar  
    76    37    74 1   
    77    38    39 ar  
    78    38    75 1   
    79    39    40 ar  
    80    39    76 1   
    81    40    41 ar  
    82    40    77 1   
@<TRIPOS>SUBSTRUCTURE
     1 K19         1 TEMP              0 ****  ****    0 ROOT
