@<TRIPOS>MOLECULE
K1A
   26    27     1     0     0
SMALL
No Charge or Current Charge


@<TRIPOS>ATOM
      1 N1           0.8050    -0.0480    -0.7930 n          1 K1A      -0.167800
      2 C4          -2.2750     1.3880    -0.2100 cc         1 K1A       0.300300
      3 C5          -1.9170     2.6940    -0.8610 c3         1 K1A      -0.136400
      4 C6          -2.2530    -0.7330     0.2910 cd         1 K1A       0.226300
      5 C7          -2.0260    -2.2080     0.4620 c3         1 K1A      -0.145400
      6 C8           1.4750    -1.2700    -0.5930 c          1 K1A       0.560600
      7 N            1.3950     1.1130    -0.3120 n2         1 K1A      -0.424300
      8 O           -3.2240    -0.1170     1.0340 os         1 K1A      -0.073700
      9 C1           2.5110     0.7670     0.2640 cc         1 K1A       0.343200
     10 C2          -0.4990    -0.0280    -1.4880 c3         1 K1A       0.210300
     11 C3          -1.6280     0.1690    -0.5080 cc         1 K1A      -0.272300
     12 N2          -3.2310     1.2800     0.6960 nd         1 K1A      -0.367300
     13 O1           1.0980    -2.3770    -0.9530 o          1 K1A      -0.492000
     14 S            2.9740    -0.9140     0.2960 ss         1 K1A      -0.183800
     15 H1          -2.1020     2.6530    -1.9400 hc         1 K1A       0.059700
     16 H2          -2.5100     3.5180    -0.4490 hc         1 K1A       0.059700
     17 H3          -0.8590     2.9310    -0.7030 hc         1 K1A       0.059700
     18 H4          -1.1300    -2.3960     1.0640 hc         1 K1A       0.069700
     19 H5          -2.8760    -2.6840     0.9640 hc         1 K1A       0.069700
     20 H6          -1.8920    -2.6990    -0.5090 hc         1 K1A       0.069700
     21 H7           4.4420     1.4440     0.9320 hc         1 K1A       0.063700
     22 H8           3.3720     2.7370     0.3630 hc         1 K1A       0.063700
     23 H9           3.0830     1.9780     1.9410 hc         1 K1A       0.063700
     24 H10         -0.4910     0.7840    -2.2250 h1         1 K1A       0.076200
     25 H11         -0.6510    -0.9630    -2.0420 h1         1 K1A       0.076200
     26 C            3.4010     1.7870     0.9100 c3         1 K1A      -0.109400
@<TRIPOS>BOND
     1     1     6 1   
     2     1     7 1   
     3     1    10 1   
     4     2     3 1   
     5     2    11 1   
     6     2    12 2   
     7     3    15 1   
     8     3    16 1   
     9     3    17 1   
    10     4     5 1   
    11     4     8 1   
    12     4    11 2   
    13     5    18 1   
    14     5    19 1   
    15     5    20 1   
    16     6    13 2   
    17     6    14 1   
    18     7     9 2   
    19     8    12 1   
    20     9    14 1   
    21     9    26 1   
    22    10    11 1   
    23    10    24 1   
    24    10    25 1   
    25    21    26 1   
    26    22    26 1   
    27    23    26 1   
@<TRIPOS>SUBSTRUCTURE
     1 K1A         1 TEMP              0 ****  ****    0 ROOT
