@<TRIPOS>MOLECULE
K1A
   26    27     1     0     0
SMALL
bcc


@<TRIPOS>ATOM
      1 N1           0.8470    -0.1130    -0.7890 n          1 K1A      -0.234800
      2 C4          -2.0830     1.2870     0.0460 cc         1 K1A       0.365600
      3 C5          -1.6450     2.6650    -0.2990 c3         1 K1A      -0.136400
      4 C6          -2.3380    -0.8840     0.1610 cd         1 K1A       0.336000
      5 C7          -2.3740    -2.3630     0.1070 c3         1 K1A      -0.145400
      6 C8           1.4540    -1.2240    -0.2950 c          1 K1A       0.703100
      7 N            1.4300     1.0850    -0.5670 n2         1 K1A      -0.424300
      8 O           -3.2140    -0.2750     0.9620 os         1 K1A      -0.118100
      9 C1           2.5270     0.9730     0.0780 cc         1 K1A       0.343200
     10 C2          -0.4610    -0.1450    -1.4250 c3         1 K1A       0.210300
     11 C3          -1.5760     0.0540    -0.4580 cc         1 K1A      -0.402900
     12 N2          -3.0530     1.0810     0.8870 nd         1 K1A      -0.367300
     13 O1           1.0660    -2.3660    -0.3700 o          1 K1A      -0.567500
     14 S            2.9490    -0.6680     0.4900 ss         1 K1A      -0.183800
     15 H1          -1.7520     2.8420    -1.3700 hc         1 K1A       0.059700
     16 H2          -2.2360     3.4080     0.2320 hc         1 K1A       0.059700
     17 H3          -0.5940     2.8110    -0.0520 hc         1 K1A       0.059700
     18 H4          -2.0970    -2.7970     1.0690 hc         1 K1A       0.069700
     19 H5          -3.3710    -2.7210    -0.1470 hc         1 K1A       0.069700
     20 H6          -1.6750    -2.7330    -0.6370 hc         1 K1A       0.069700
     21 H7           3.4750     2.1900     1.5440 hc         1 K1A       0.063700
     22 H8           4.3900     2.0080     0.0520 hc         1 K1A       0.063700
     23 H9           2.9550     3.0440     0.0830 hc         1 K1A       0.063700
     24 H10         -0.4620     0.6280    -2.1930 h1         1 K1A       0.076200
     25 H11         -0.5550    -1.1000    -1.9400 h1         1 K1A       0.076200
     26 C            3.3860     2.1190     0.4600 c3         1 K1A      -0.109400
@<TRIPOS>BOND
     1     1     6 1   
     2     1     7 1   
     3     1    10 1   
     4     2     3 1   
     5     2    11 1   
     6     2    12 2   
     7     3    15 1   
     8     3    16 1   
     9     3    17 1   
    10     4     5 1   
    11     4     8 1   
    12     4    11 2   
    13     5    18 1   
    14     5    19 1   
    15     5    20 1   
    16     6    13 2   
    17     6    14 1   
    18     7     9 2   
    19     8    12 1   
    20     9    14 1   
    21     9    26 1   
    22    10    11 1   
    23    10    24 1   
    24    10    25 1   
    25    21    26 1   
    26    22    26 1   
    27    23    26 1   
@<TRIPOS>SUBSTRUCTURE
     1 K1A         1 TEMP              0 ****  ****    0 ROOT
