@<TRIPOS>MOLECULE
K1B
   29    30     1     0     0
SMALL
No Charge or Current Charge


@<TRIPOS>ATOM
      1 C10        -21.8120    16.7540   -13.7410 cg         1 K1B       0.263700
      2 C12        -23.0510    17.9000   -11.8780 c          1 K1B       0.626300
      3 O22        -22.5870    13.0260   -16.6060 o          1 K1B      -0.394500
      4 C02        -22.1970    11.3700   -13.3780 ca         1 K1B       0.267100
      5 C03        -22.4140    12.3750   -14.3530 ca         1 K1B      -0.301200
      6 C04        -22.6680    13.7010   -13.9190 ca         1 K1B       0.038000
      7 C05        -22.6970    14.0270   -12.5450 ca         1 K1B      -0.156800
      8 C06        -22.5010    13.0060   -11.5980 ca         1 K1B       0.011000
      9 C07        -22.2480    11.6930   -12.0170 ca         1 K1B      -0.181000
     10 C08        -22.9710    15.4020   -12.0590 cf         1 K1B       0.002800
     11 C09        -22.6240    16.6290   -12.5690 ce         1 K1B      -0.102900
     12 C15        -22.8830    20.3780   -12.0420 cc         1 K1B       0.511300
     13 C18        -23.4300    22.4990   -11.1390 cc         1 K1B       0.391600
     14 N11        -21.1560    16.9080   -14.6930 n1         1 K1B      -0.416000
     15 N14        -22.6430    19.0870   -12.4510 ns         1 K1B      -0.458400
     16 N16        -22.3820    21.3690   -12.7620 nd         1 K1B      -0.382000
     17 N17        -22.7000    22.6100   -12.2370 nd         1 K1B      -0.257000
     18 O01        -21.9460    10.0720   -13.7060 oh         1 K1B      -0.511100
     19 O13        -23.7270    17.8770   -10.8600 o          1 K1B      -0.574100
     20 O23        -22.1720    10.9290   -16.1960 o          1 K1B      -0.394500
     21 S20        -23.7980    20.8790   -10.6430 ss         1 K1B      -0.127800
     22 Br         -24.0600    23.9670   -10.1350 br         1 K1B      -0.086200
     23 H1         -22.8720    14.4800   -14.6510 ha         1 K1B       0.162000
     24 H2         -22.5320    13.2300   -10.5330 ha         1 K1B       0.133000
     25 H3         -22.0880    10.9140   -11.2760 ha         1 K1B       0.153000
     26 H4         -23.5510    15.4050   -11.1320 ha         1 K1B       0.210000
     27 H5         -22.0890    18.9930   -13.2890 hn         1 K1B       0.360500
     28 H6         -21.9530    10.0140   -14.6900 ho         1 K1B       0.529000
     29 N21        -22.3900    12.0890   -15.8240 no         1 K1B       0.684200
@<TRIPOS>BOND
     1     1    11 1   
     2     1    14 3   
     3     2    11 1   
     4     2    15 1   
     5     2    19 2   
     6     3    29 1   
     7     4     5 ar  
     8     4     9 ar  
     9     4    18 1   
    10     5     6 ar  
    11     5    29 1   
    12     6     7 ar  
    13     6    23 1   
    14     7     8 ar  
    15     7    10 1   
    16     8     9 ar  
    17     8    24 1   
    18     9    25 1   
    19    10    11 2   
    20    10    26 1   
    21    12    15 1   
    22    12    16 2   
    23    12    21 1   
    24    13    17 2   
    25    13    21 1   
    26    13    22 1   
    27    15    27 1   
    28    16    17 1   
    29    18    28 1   
    30    20    29 1   
@<TRIPOS>SUBSTRUCTURE
     1 K1B         1 TEMP              0 ****  ****    0 ROOT
