@<TRIPOS>MOLECULE
K1B
   29    30     1     0     0
SMALL
abcg2


@<TRIPOS>ATOM
      1 C10        -22.2720    16.7960   -14.1610 cg         1 K1B       0.263700
      2 C12        -22.9010    17.9130   -12.0200 c          1 K1B       0.626300
      3 O22        -21.9250    12.9770   -16.4660 o          1 K1B      -0.394500
      4 C02        -22.3530    11.3830   -13.2810 ca         1 K1B       0.267100
      5 C03        -22.2510    12.4050   -14.2580 ca         1 K1B      -0.301200
      6 C04        -22.3820    13.7450   -13.9220 ca         1 K1B       0.038000
      7 C05        -22.6240    14.1230   -12.6040 ca         1 K1B      -0.156800
      8 C06        -22.7340    13.0980   -11.6320 ca         1 K1B       0.011000
      9 C07        -22.5990    11.7720   -11.9570 ca         1 K1B      -0.181000
     10 C08        -22.7790    15.4820   -12.1510 cf         1 K1B       0.002800
     11 C09        -22.6450    16.6670   -12.7980 ce         1 K1B      -0.102900
     12 C15        -22.9040    20.3280   -12.1210 cc         1 K1B       0.511300
     13 C18        -23.3640    22.2650   -10.8700 cc         1 K1B       0.391600
     14 N11        -21.9670    16.9580   -15.2620 n1         1 K1B      -0.416000
     15 N14        -22.6980    19.0930   -12.6840 ns         1 K1B      -0.458400
     16 N16        -22.6940    21.4240   -12.7970 nd         1 K1B      -0.382000
     17 N17        -22.9640    22.5490   -12.0620 nd         1 K1B      -0.257000
     18 O01        -22.2340    10.0890   -13.5400 oh         1 K1B      -0.511100
     19 O13        -23.2750    17.8980   -10.8560 o          1 K1B      -0.574100
     20 O23        -21.8870    10.8830   -15.9560 o          1 K1B      -0.394500
     21 S20        -23.4580    20.5710   -10.4930 ss         1 K1B      -0.127800
     22 BR         -23.8220    23.5760    -9.6040 br         1 K1B      -0.086200
     23 H1         -22.2990    14.4680   -14.7160 ha         1 K1B       0.162000
     24 H2         -22.9300    13.3730   -10.6040 ha         1 K1B       0.133000
     25 H3         -22.6820    10.9990   -11.2060 ha         1 K1B       0.153000
     26 H4         -23.0440    15.5830   -11.1050 ha         1 K1B       0.210000
     27 H5         -22.3760    19.1000   -13.6450 hn         1 K1B       0.360500
     28 H6         -22.0720     9.9870   -14.5060 ho         1 K1B       0.529000
     29 N21        -22.0070    12.0800   -15.6460 no         1 K1B       0.684200
@<TRIPOS>BOND
     1     1    11 1   
     2     1    14 3   
     3     2    11 1   
     4     2    15 1   
     5     2    19 2   
     6     3    29 1   
     7     4     5 ar  
     8     4     9 ar  
     9     4    18 1   
    10     5     6 ar  
    11     5    29 1   
    12     6     7 ar  
    13     6    23 1   
    14     7     8 ar  
    15     7    10 1   
    16     8     9 ar  
    17     8    24 1   
    18     9    25 1   
    19    10    11 2   
    20    10    26 1   
    21    12    15 1   
    22    12    16 2   
    23    12    21 1   
    24    13    17 2   
    25    13    21 1   
    26    13    22 1   
    27    15    27 1   
    28    16    17 1   
    29    18    28 1   
    30    20    29 1   
@<TRIPOS>SUBSTRUCTURE
     1 K1B         1 TEMP              0 ****  ****    0 ROOT
