@<TRIPOS>MOLECULE
K1C
   66    72     1     0     0
SMALL
No Charge or Current Charge


@<TRIPOS>ATOM
      1 C21         33.3530    37.9030     0.6990 c5         1 K1C       0.281300
      2 O23         32.3190    34.9120    -1.1770 os         1 K1C      -0.568400
      3 C18         37.0520    34.7600    -2.6200 cc         1 K1C       0.434700
      4 N17         37.4450    36.0470    -2.6950 nd         1 K1C      -0.568100
      5 C25         32.9520    34.5580     2.0250 c3         1 K1C       0.242600
      6 C24         32.5000    35.7300     1.1150 c5         1 K1C       0.139300
      7 C33         35.7130    32.7520     0.1280 c5         1 K1C       0.220300
      8 O35         34.1500    33.6970    -2.2280 os         1 K1C      -0.639400
      9 C8          35.8370    37.3130     0.9990 cc         1 K1C       0.465700
     10 C4          35.2450    39.4260     1.3960 ca         1 K1C       0.108500
     11 C5          36.5930    39.2450     1.5750 ca         1 K1C      -0.077600
     12 C6          37.3710    40.3580     1.9570 ca         1 K1C       0.422900
     13 C2          35.4760    41.6400     1.9290 ca         1 K1C       0.144900
     14 C36         36.5040    31.8110    -2.0070 c5         1 K1C      -0.078400
     15 C12         40.2760    35.9310     0.2010 ca         1 K1C       0.154900
     16 C14         38.6450    34.9470    -1.0700 ca         1 K1C       0.109500
     17 C15         38.4410    36.1380    -1.7220 ca         1 K1C      -0.074600
     18 C16         39.2330    37.2470    -1.3510 ca         1 K1C       0.433900
     19 C22         33.0340    37.2460    -0.6770 c5         1 K1C       0.125300
     20 C23         33.1350    35.7370    -0.3060 c5         1 K1C       0.187300
     21 C31         37.6260    32.6270    -1.2680 c5         1 K1C       0.054300
     22 C32         37.2270    32.3880     0.2200 c5         1 K1C       0.145300
     23 C34         35.2390    31.8830    -1.0740 c5         1 K1C      -0.084700
     24 C35         33.9330    32.3710    -1.7420 c3         1 K1C       0.243600
     25 F22         31.7390    37.5980    -1.0910 f          1 K1C      -0.252000
     26 F32         37.4460    31.0530     0.6010 f          1 K1C      -0.267000
     27 N1          36.8140    41.5660     2.1330 nb         1 K1C      -0.333000
     28 N11         40.1570    37.1480    -0.3830 nb         1 K1C      -0.331000
     29 N13         39.5680    34.8150    -0.0960 nb         1 K1C      -0.202000
     30 N16         39.1250    38.4630    -1.9500 nv         1 K1C      -1.066900
     31 N19         37.7640    34.0580    -1.6290 na         1 K1C      -0.270300
     32 N3          34.6540    40.6260     1.5670 nb         1 K1C      -0.206000
     33 N6          38.7140    40.2870     2.1590 nv         1 K1C      -1.069900
     34 N7          36.9880    37.9280     1.3340 nd         1 K1C      -0.569100
     35 N9          34.7510    38.2030     1.0340 na         1 K1C      -0.288300
     36 O24         32.8120    37.0220     1.7110 os         1 K1C      -0.443000
     37 O25         34.3840    34.5610     2.1240 os         1 K1C      -0.625400
     38 O33         34.9680    32.3420     1.3000 os         1 K1C      -0.580400
     39 P25         35.1240    33.2300     2.6400 p5         1 K1C       1.402800
     40 P35         32.8870    34.5970    -2.6550 p5         1 K1C       1.402800
     41 O25A        34.3920    32.6220     3.7880 o          1 K1C      -0.812000
     42 O25B        36.5490    33.5060     2.9790 o          1 K1C      -0.812000
     43 O35A        33.3300    35.8280    -3.3670 o          1 K1C      -0.811500
     44 O35B        31.9140    33.8070    -3.4630 o          1 K1C      -0.811500
     45 H1          32.8360    38.8700     0.7540 h2         1 K1C       0.093700
     46 H3          32.4940    34.6760     3.0160 h1         1 K1C       0.033200
     47 H4          32.5890    33.6180     1.5900 h1         1 K1C       0.033200
     48 H5          31.4070    35.6750     1.0250 h1         1 K1C       0.060700
     49 H6          35.5760    33.8250    -0.0540 h1         1 K1C       0.038700
     50 H8          35.0140    42.6150     2.0710 h5         1 K1C       0.024100
     51 H9          36.3140    32.1550    -3.0290 hc         1 K1C       0.053200
     52 H10         36.8170    30.7650    -2.1160 hc         1 K1C       0.053200
     53 H11         41.0230    35.8380     0.9870 h5         1 K1C       0.025100
     54 H12         33.7460    37.5490    -1.4550 h1         1 K1C       0.115700
     55 H13         34.1700    35.3820    -0.3090 h1         1 K1C       0.054700
     56 H14         38.5980    32.1540    -1.4610 h1         1 K1C       0.077700
     57 H15         37.7870    33.0390     0.9010 h1         1 K1C       0.117700
     58 H16         35.0120    30.8710    -0.7200 hc         1 K1C       0.062700
     59 H17         33.1210    32.3490    -1.0020 h1         1 K1C       0.029200
     60 H18         33.6710    31.6940    -2.5650 h1         1 K1C       0.029200
     61 H19         39.4890    39.2680    -1.4500 hn         1 K1C       0.493000
     62 H20         38.3030    38.6170    -2.5270 hn         1 K1C       0.493000
     63 H21         39.2480    41.1510     2.1550 hn         1 K1C       0.495000
     64 H22         39.1870    39.4460     1.8390 hn         1 K1C       0.495000
     65 H2          36.2970    34.3010    -3.2460 h5         1 K1C       0.120800
     66 H7          35.7370    36.2650     0.7500 h5         1 K1C       0.122800
@<TRIPOS>BOND
     1     1    19 1   
     2     1    35 1   
     3     1    36 1   
     4     1    45 1   
     5     2    20 1   
     6     2    40 1   
     7     3     4 2   
     8     3    31 1   
     9     3    65 1   
    10     4    17 1   
    11     5     6 1   
    12     5    37 1   
    13     5    46 1   
    14     5    47 1   
    15     6    20 1   
    16     6    36 1   
    17     6    48 1   
    18     7    22 1   
    19     7    23 1   
    20     7    38 1   
    21     7    49 1   
    22     8    24 1   
    23     8    40 1   
    24     9    34 2   
    25     9    35 1   
    26     9    66 1   
    27    10    11 ar  
    28    10    32 ar  
    29    10    35 1   
    30    11    12 ar  
    31    11    34 1   
    32    12    27 ar  
    33    12    33 1   
    34    13    27 ar  
    35    13    32 ar  
    36    13    50 1   
    37    14    21 1   
    38    14    23 1   
    39    14    51 1   
    40    14    52 1   
    41    15    28 ar  
    42    15    29 ar  
    43    15    53 1   
    44    16    17 ar  
    45    16    29 ar  
    46    16    31 1   
    47    17    18 ar  
    48    18    28 ar  
    49    18    30 1   
    50    19    20 1   
    51    19    25 1   
    52    19    54 1   
    53    20    55 1   
    54    21    22 1   
    55    21    31 1   
    56    21    56 1   
    57    22    26 1   
    58    22    57 1   
    59    23    24 1   
    60    23    58 1   
    61    24    59 1   
    62    24    60 1   
    63    30    61 1   
    64    30    62 1   
    65    33    63 1   
    66    33    64 1   
    67    37    39 1   
    68    38    39 1   
    69    39    41 1   
    70    39    42 1   
    71    40    43 1   
    72    40    44 1   
@<TRIPOS>SUBSTRUCTURE
     1 K1C         1 TEMP              0 ****  ****    0 ROOT
