@<TRIPOS>MOLECULE
K1C
   66    72     1     0     0
SMALL
abcg2


@<TRIPOS>ATOM
      1 C21         33.4010    37.6760     0.7910 c5         1 K1C       0.281300
      2 O23         32.1190    34.8560    -1.1200 os         1 K1C      -0.568400
      3 C18         36.7140    35.4240    -1.8290 cc         1 K1C       0.434700
      4 N17         37.0800    36.6730    -1.8620 nd         1 K1C      -0.568100
      5 C25         32.5900    34.4200     1.9790 c3         1 K1C       0.242600
      6 C24         32.3110    35.6420     1.1300 c5         1 K1C       0.139300
      7 C33         35.6380    32.8100     0.1810 c5         1 K1C       0.220300
      8 O35         34.0360    33.6540    -2.2810 os         1 K1C      -0.639400
      9 C8          35.7290    36.8940     1.4680 cc         1 K1C       0.465700
     10 C4          35.5150    39.0110     0.9530 ca         1 K1C       0.108500
     11 C5          36.8040    38.7100     1.3670 ca         1 K1C      -0.077600
     12 C6          37.7060    39.7860     1.4270 ca         1 K1C       0.422900
     13 C2          36.0040    41.1320     0.6640 ca         1 K1C       0.144900
     14 C36         36.6260    32.4050    -2.0090 c5         1 K1C      -0.078400
     15 C12         40.6620    36.0790    -0.2110 ca         1 K1C       0.154900
     16 C14         38.7180    35.3900    -0.9650 ca         1 K1C       0.109500
     17 C15         38.3390    36.6720    -1.3260 ca         1 K1C      -0.074600
     18 C16         39.2730    37.6920    -1.0830 ca         1 K1C       0.433900
     19 C22         33.0700    37.0910    -0.5850 c5         1 K1C       0.125300
     20 C23         32.9260    35.6110    -0.2690 c5         1 K1C       0.187300
     21 C31         37.6240    33.1480    -1.0990 c5         1 K1C       0.054300
     22 C32         37.1530    32.8200     0.3190 c5         1 K1C       0.145300
     23 C34         35.4010    32.0580    -1.1340 c5         1 K1C      -0.084700
     24 C35         34.0540    32.3320    -1.7800 c3         1 K1C       0.243600
     25 F22         31.8420    37.5990    -0.9800 f          1 K1C      -0.252000
     26 F32         37.5930    31.5330     0.6150 f          1 K1C      -0.267000
     27 N1          37.2680    40.9930     1.0550 nb         1 K1C      -0.333000
     28 N11         40.4340    37.3560    -0.5090 nb         1 K1C      -0.331000
     29 N13         39.8730    35.0360    -0.4050 nb         1 K1C      -0.202000
     30 N16         39.0580    38.9670    -1.4290 nv         1 K1C      -1.066900
     31 N19         37.6650    34.5880    -1.3060 na         1 K1C      -0.270300
     32 N3          35.0620    40.2070     0.5860 nb         1 K1C      -0.206000
     33 N6          38.9610    39.6540     1.8700 nv         1 K1C      -1.069900
     34 N7          36.9150    37.3820     1.6820 nd         1 K1C      -0.569100
     35 N9          34.8280    37.8310     1.0260 na         1 K1C      -0.288300
     36 O24         32.8580    36.8070     1.7410 os         1 K1C      -0.443000
     37 O25         33.9690    34.3520     2.2460 os         1 K1C      -0.625400
     38 O33         34.9200    32.2140     1.2280 os         1 K1C      -0.580400
     39 P25         34.7430    32.9690     2.6860 p5         1 K1C       1.402800
     40 P35         32.6460    34.4480    -2.6380 p5         1 K1C       1.402800
     41 O25A        33.8360    32.0860     3.4750 o          1 K1C      -0.812000
     42 O25B        36.0740    33.4340     3.1830 o          1 K1C      -0.812000
     43 O35A        33.0820    35.6810    -3.3600 o          1 K1C      -0.811500
     44 O35B        31.6190    33.5030    -3.1620 o          1 K1C      -0.811500
     45 H1          32.9730    38.6780     0.8840 h2         1 K1C       0.093700
     46 H3          32.0210    34.4800     2.9120 h1         1 K1C       0.033200
     47 H4          32.2190    33.5470     1.4300 h1         1 K1C       0.033200
     48 H5          31.2220    35.7440     1.0390 h1         1 K1C       0.060700
     49 H6          35.3410    33.8580     0.0520 h1         1 K1C       0.038700
     50 H8          35.7130    42.1360     0.3770 h5         1 K1C       0.024100
     51 H9          36.3690    32.9880    -2.8920 hc         1 K1C       0.053200
     52 H10         37.1000    31.4950    -2.3750 hc         1 K1C       0.053200
     53 H11         41.6210    35.8730     0.2520 h5         1 K1C       0.025100
     54 H12         33.8100    37.3310    -1.3470 h1         1 K1C       0.115700
     55 H13         33.9400    35.2020    -0.2040 h1         1 K1C       0.054700
     56 H14         38.6440    32.7920    -1.2460 h1         1 K1C       0.077700
     57 H15         37.5370    33.4950     1.0820 h1         1 K1C       0.117700
     58 H16         35.4200    30.9880    -0.9050 hc         1 K1C       0.062700
     59 H17         33.2610    32.1680    -1.0420 h1         1 K1C       0.029200
     60 H18         33.8890    31.6210    -2.5950 h1         1 K1C       0.029200
     61 H19         39.6910    39.6780    -1.1040 hn         1 K1C       0.493000
     62 H20         38.1420    39.2620    -1.7200 hn         1 K1C       0.493000
     63 H21         39.6010    40.4260     1.7810 hn         1 K1C       0.495000
     64 H22         39.3550    38.7400     2.0150 hn         1 K1C       0.495000
     65 H2          35.7610    35.0530    -2.1740 h5         1 K1C       0.120800
     66 H7          35.4450    35.8690     1.6430 h5         1 K1C       0.122800
@<TRIPOS>BOND
     1     1    19 1   
     2     1    35 1   
     3     1    36 1   
     4     1    45 1   
     5     2    20 1   
     6     2    40 1   
     7     3     4 2   
     8     3    31 1   
     9     3    65 1   
    10     4    17 1   
    11     5     6 1   
    12     5    37 1   
    13     5    46 1   
    14     5    47 1   
    15     6    20 1   
    16     6    36 1   
    17     6    48 1   
    18     7    22 1   
    19     7    23 1   
    20     7    38 1   
    21     7    49 1   
    22     8    24 1   
    23     8    40 1   
    24     9    34 2   
    25     9    35 1   
    26     9    66 1   
    27    10    11 ar  
    28    10    32 ar  
    29    10    35 1   
    30    11    12 ar  
    31    11    34 1   
    32    12    27 ar  
    33    12    33 1   
    34    13    27 ar  
    35    13    32 ar  
    36    13    50 1   
    37    14    21 1   
    38    14    23 1   
    39    14    51 1   
    40    14    52 1   
    41    15    28 ar  
    42    15    29 ar  
    43    15    53 1   
    44    16    17 ar  
    45    16    29 ar  
    46    16    31 1   
    47    17    18 ar  
    48    18    28 ar  
    49    18    30 1   
    50    19    20 1   
    51    19    25 1   
    52    19    54 1   
    53    20    55 1   
    54    21    22 1   
    55    21    31 1   
    56    21    56 1   
    57    22    26 1   
    58    22    57 1   
    59    23    24 1   
    60    23    58 1   
    61    24    59 1   
    62    24    60 1   
    63    30    61 1   
    64    30    62 1   
    65    33    63 1   
    66    33    64 1   
    67    37    39 1   
    68    38    39 1   
    69    39    41 1   
    70    39    42 1   
    71    40    43 1   
    72    40    44 1   
@<TRIPOS>SUBSTRUCTURE
     1 K1C         1 TEMP              0 ****  ****    0 ROOT
