@<TRIPOS>MOLECULE
K1D
   22    24     1     0     0
SMALL
No Charge or Current Charge


@<TRIPOS>ATOM
      1 N1           0.3500    -1.8890    -0.2130 nb         1 K1D      -0.301000
      2 N3          -2.9350     0.4910     0.1590 na         1 K1D      -0.414300
      3 C4          -0.8830    -2.4250    -0.3640 ca         1 K1D       0.181900
      4 C5          -1.9790    -0.4620    -0.0030 ca         1 K1D       0.123500
      5 C6          -2.3110     1.7030     0.4280 cc         1 K1D       0.392700
      6 C7          -0.7820     0.1890     0.1700 ca         1 K1D      -0.095600
      7 N            1.6780    -0.0210     0.2120 nn         1 K1D      -0.775300
      8 C            3.5760     0.7950     0.4150 cy         1 K1D      -0.123400
      9 C1           3.0180    -0.5450    -0.1650 cy         1 K1D       0.233300
     10 C2           2.1450     1.3910     0.2100 cy         1 K1D       0.233300
     11 C3           0.4170    -0.5670     0.0560 ca         1 K1D       0.459900
     12 N2          -2.0650    -1.7740    -0.2720 nb         1 K1D      -0.227000
     13 N4          -0.9740     1.5540     0.4420 nd         1 K1D      -0.549100
     14 H1          -3.9340     0.3490     0.0970 hn         1 K1D       0.368000
     15 H2          -0.9290    -3.4910    -0.5820 h5         1 K1D       0.045100
     16 H3          -2.8610     2.6220     0.5970 h5         1 K1D       0.064800
     17 H4           3.8860     0.7320     1.4630 hc         1 K1D       0.062200
     18 H5           4.3750     1.2680    -0.1640 hc         1 K1D       0.062200
     19 H6           3.3590    -1.4380     0.3730 h1         1 K1D       0.064200
     20 H7           3.1780    -0.6640    -1.2450 h1         1 K1D       0.064200
     21 H8           2.0130     1.9170    -0.7440 h1         1 K1D       0.064200
     22 H9           1.8040     2.0170     1.0430 h1         1 K1D       0.064200
@<TRIPOS>BOND
     1     1     3 ar  
     2     1    11 ar  
     3     2     4 1   
     4     2     5 1   
     5     2    14 1   
     6     3    12 ar  
     7     3    15 1   
     8     4     6 ar  
     9     4    12 ar  
    10     5    13 2   
    11     5    16 1   
    12     6    11 ar  
    13     6    13 1   
    14     7     9 1   
    15     7    10 1   
    16     7    11 1   
    17     8     9 1   
    18     8    10 1   
    19     8    17 1   
    20     8    18 1   
    21     9    19 1   
    22     9    20 1   
    23    10    21 1   
    24    10    22 1   
@<TRIPOS>SUBSTRUCTURE
     1 K1D         1 TEMP              0 ****  ****    0 ROOT
