@<TRIPOS>MOLECULE
K1D
   22    24     1     0     0
SMALL
bcc


@<TRIPOS>ATOM
      1 N1           0.3460    -1.8090    -0.2550 nb         1 K1D      -0.827000
      2 N3          -2.9080     0.4700     0.1060 na         1 K1D      -0.364000
      3 C4          -0.8600    -2.3410    -0.4280 ca         1 K1D       0.707900
      4 C5          -1.9240    -0.4550    -0.0580 ca         1 K1D       0.451800
      5 C6          -2.2970     1.6510     0.3990 cc         1 K1D       0.392700
      6 C7          -0.7410     0.2450     0.1500 ca         1 K1D      -0.226200
      7 N            1.6580     0.0050     0.2210 nn         1 K1D      -0.775300
      8 C            3.5820     0.8120     0.2200 cy         1 K1D      -0.123400
      9 C1           2.9660    -0.5850    -0.0090 cy         1 K1D       0.233300
     10 C2           2.1510     1.3670     0.3750 cy         1 K1D       0.233300
     11 C3           0.4470    -0.5050     0.0390 ca         1 K1D       0.788200
     12 N2          -2.0400    -1.7510    -0.3510 nb         1 K1D      -0.753000
     13 N4          -0.9990     1.5620     0.4350 nd         1 K1D      -0.549100
     14 H1          -3.9020     0.3130     0.0400 hn         1 K1D       0.317700
     15 H2          -0.8710    -3.4010    -0.6640 h5         1 K1D       0.045100
     16 H3          -2.8680     2.5500     0.5800 h5         1 K1D       0.064800
     17 H4           4.1940     0.8910     1.1150 hc         1 K1D       0.062200
     18 H5           4.1380     1.2140    -0.6240 hc         1 K1D       0.062200
     19 H6           3.2410    -1.3530     0.7160 h1         1 K1D       0.064200
     20 H7           3.0900    -0.9900    -1.0150 h1         1 K1D       0.064200
     21 H8           1.8270     2.0420    -0.4190 h1         1 K1D       0.064200
     22 H9           1.9130     1.8190     1.3390 h1         1 K1D       0.064200
@<TRIPOS>BOND
     1     1     3 ar  
     2     1    11 ar  
     3     2     4 1   
     4     2     5 1   
     5     2    14 1   
     6     3    12 ar  
     7     3    15 1   
     8     4     6 ar  
     9     4    12 ar  
    10     5    13 2   
    11     5    16 1   
    12     6    11 ar  
    13     6    13 1   
    14     7     9 1   
    15     7    10 1   
    16     7    11 1   
    17     8     9 1   
    18     8    10 1   
    19     8    17 1   
    20     8    18 1   
    21     9    19 1   
    22     9    20 1   
    23    10    21 1   
    24    10    22 1   
@<TRIPOS>SUBSTRUCTURE
     1 K1D         1 TEMP              0 ****  ****    0 ROOT
