@<TRIPOS>MOLECULE
K1E
   69    73     1     0     0
SMALL
bcc


@<TRIPOS>ATOM
      1 C1           6.1570     6.4790    -0.0380 c3         1 K1E       0.048600
      2 C8           3.5670     0.9990     0.0400 ca         1 K1E       0.968900
      3 C10          2.2530    -0.8650     0.1180 ca         1 K1E       0.715900
      4 C11          3.4360    -1.6670    -0.1120 ca         1 K1E       0.089000
      5 C13          4.4080    -3.7070    -0.3720 ca         1 K1E       0.378600
      6 C14          5.6740    -3.1110    -0.5360 ca         1 K1E      -0.204300
      7 C15          5.7910    -1.7480    -0.4770 ca         1 K1E      -0.163300
      8 C16          4.6370    -0.9650    -0.2540 ca         1 K1E       0.397300
      9 C19          2.9180    -5.6640    -0.2330 c1         1 K1E       0.232700
     10 C22         -0.1840    -0.8140     0.4800 c6         1 K1E       0.239500
     11 C24         -2.1040     0.4560    -0.5550 c6         1 K1E      -0.073400
     12 C27         -1.1750    -1.8030     1.0770 c6         1 K1E      -0.092900
     13 C30         -6.7590    -0.4570     0.8920 c6         1 K1E       0.108000
     14 C32         -6.1580     1.7160    -0.0090 c6         1 K1E       0.108000
     15 C33         -4.8720     1.1150    -0.5510 c6         1 K1E       0.154300
     16 C34         -8.4580     0.9720    -0.2260 c          1 K1E       0.760100
     17 N2           5.7630     5.0910    -0.0460 na         1 K1E       0.118400
     18 N3           6.6540     4.1440    -0.2820 nc         1 K1E      -0.520800
     19 C4           5.9890     2.9990    -0.2520 cd         1 K1E       0.315200
     20 C5           4.6230     3.2250     0.0110 cd         1 K1E      -0.013700
     21 C6           4.5230     4.5980     0.1360 cc         1 K1E      -0.203300
     22 N7           3.5530     2.3510     0.1310 nu         1 K1E      -0.702300
     23 N9           2.3440     0.4430     0.1940 nb         1 K1E      -0.873000
     24 N12          3.3290    -2.9980    -0.1690 nb         1 K1E      -0.638000
     25 N17          4.7070     0.3830    -0.1820 nb         1 K1E      -0.806000
     26 C18          4.2840    -5.2080    -0.4280 c3         1 K1E      -0.058600
     27 N20          1.8470    -6.0560    -0.0860 n1         1 K1E      -0.377800
     28 N21          1.0840    -1.4810     0.2600 nu         1 K1E      -0.847900
     29 C23         -0.7540    -0.2110    -0.8020 c6         1 K1E      -0.092900
     30 C25         -3.1110    -0.5420     0.0150 c6         1 K1E       0.189500
     31 C26         -2.5320    -1.1480     1.2980 c6         1 K1E      -0.073400
     32 N28         -4.4250     0.0360     0.3090 n3         1 K1E      -0.731600
     33 C29         -5.4500    -0.9910     0.3420 c6         1 K1E       0.154300
     34 N31         -7.1850     0.7010     0.1280 n          1 K1E      -0.471800
     35 O35         -8.8240     1.9990    -0.7660 o          1 K1E      -0.595000
     36 O36         -9.2920    -0.0290     0.0700 os         1 K1E      -0.433900
     37 C37        -10.6590     0.1490    -0.2830 c3         1 K1E       0.147700
     38 H1           6.9710     6.6350     0.6660 h1         1 K1E       0.055033
     39 H2           6.4760     6.7930    -1.0300 h1         1 K1E       0.055033
     40 H3           5.3080     7.0850     0.2650 h1         1 K1E       0.055033
     41 H4           6.5450    -3.7310    -0.7050 ha         1 K1E       0.142000
     42 H5           6.7500    -1.2630    -0.5990 ha         1 K1E       0.157000
     43 H6          -0.0160    -0.0060     1.2000 h1         1 K1E       0.075700
     44 H7          -1.9830     1.2960     0.1380 hc         1 K1E       0.050200
     45 H8          -2.4580     0.8720    -1.4990 hc         1 K1E       0.050200
     46 H9          -1.2820    -2.6600     0.4010 hc         1 K1E       0.052700
     47 H10         -0.7920    -2.1920     2.0240 hc         1 K1E       0.052700
     48 H11         -7.5080    -1.2430     0.8490 h1         1 K1E       0.060450
     49 H12         -6.6270    -0.1760     1.9430 h1         1 K1E       0.060450
     50 H13         -5.9570     2.1680     0.9690 h1         1 K1E       0.060450
     51 H14         -6.5030     2.5020    -0.6750 h1         1 K1E       0.060450
     52 H15         -5.0370     0.7880    -1.5920 h1         1 K1E       0.041200
     53 H16         -4.1330     1.9150    -0.5730 h1         1 K1E       0.041200
     54 H17          6.4930     2.0630    -0.4140 h4         1 K1E       0.064100
     55 H18          3.6730     5.2290     0.3370 h4         1 K1E       0.171000
     56 H19          2.6490     2.7580     0.3080 hn         1 K1E       0.456800
     57 H20          4.6390    -5.5900    -1.3890 hc         1 K1E       0.079700
     58 H21          4.9120    -5.6720     0.3370 hc         1 K1E       0.079700
     59 H22          1.0940    -2.4850     0.1520 hn         1 K1E       0.469800
     60 H23         -0.0550     0.5170    -1.2180 hc         1 K1E       0.052700
     61 H24         -0.8710    -1.0050    -1.5470 hc         1 K1E       0.052700
     62 H25         -3.2170    -1.3460    -0.7370 h1         1 K1E       0.026700
     63 H26         -3.2140    -1.8850     1.7270 hc         1 K1E       0.050200
     64 H27         -2.4350    -0.3460     2.0370 hc         1 K1E       0.050200
     65 H29         -5.1320    -1.8170     0.9790 h1         1 K1E       0.041200
     66 H30         -5.6280    -1.4100    -0.6630 h1         1 K1E       0.041200
     67 H31        -11.1660    -0.7590     0.0330 h1         1 K1E       0.047033
     68 H32        -11.1010     1.0020     0.2310 h1         1 K1E       0.047033
     69 H33        -10.7870     0.2730    -1.3580 h1         1 K1E       0.047033
@<TRIPOS>BOND
     1     1    17 1   
     2     1    38 1   
     3     1    39 1   
     4     1    40 1   
     5     2    22 1   
     6     2    23 ar  
     7     2    25 ar  
     8     3     4 ar  
     9     3    23 ar  
    10     3    28 1   
    11     4     8 ar  
    12     4    24 ar  
    13     5     6 ar  
    14     5    24 ar  
    15     5    26 1   
    16     6     7 ar  
    17     6    41 1   
    18     7     8 ar  
    19     7    42 1   
    20     8    25 ar  
    21     9    26 1   
    22     9    27 3   
    23    10    12 1   
    24    10    28 1   
    25    10    29 1   
    26    10    43 1   
    27    11    29 1   
    28    11    30 1   
    29    11    44 1   
    30    11    45 1   
    31    12    31 1   
    32    12    46 1   
    33    12    47 1   
    34    13    33 1   
    35    13    34 1   
    36    13    48 1   
    37    13    49 1   
    38    14    15 1   
    39    14    34 1   
    40    14    50 1   
    41    14    51 1   
    42    15    32 1   
    43    15    52 1   
    44    15    53 1   
    45    16    34 1   
    46    16    35 2   
    47    16    36 1   
    48    17    18 1   
    49    17    21 1   
    50    18    19 2   
    51    19    20 1   
    52    19    54 1   
    53    20    21 2   
    54    20    22 1   
    55    21    55 1   
    56    22    56 1   
    57    26    57 1   
    58    26    58 1   
    59    28    59 1   
    60    29    60 1   
    61    29    61 1   
    62    30    31 1   
    63    30    32 1   
    64    30    62 1   
    65    31    63 1   
    66    31    64 1   
    67    32    33 1   
    68    33    65 1   
    69    33    66 1   
    70    36    37 1   
    71    37    67 1   
    72    37    68 1   
    73    37    69 1   
@<TRIPOS>SUBSTRUCTURE
     1 K1E         1 TEMP              0 ****  ****    0 ROOT
