@<TRIPOS>MOLECULE
K1E
   69    73     1     0     0
SMALL
No Charge or Current Charge


@<TRIPOS>ATOM
      1 C1           6.0810     6.5850     0.5550 c3         1 K1E       0.077900
      2 C8           3.6230     0.9530     0.3160 ca         1 K1E       0.442900
      3 C10          2.3480    -0.9280     0.3810 ca         1 K1E       0.452900
      4 C11          3.4320    -1.7070    -0.1200 ca         1 K1E       0.089000
      5 C13          4.3960    -3.7260    -0.8170 ca         1 K1E       0.313300
      6 C14          5.6180    -3.0880    -1.0990 ca         1 K1E      -0.121000
      7 C15          5.7390    -1.7070    -0.8770 ca         1 K1E      -0.080000
      8 C16          4.6340    -0.9940    -0.3800 ca         1 K1E       0.069000
      9 C19          4.7210    -5.9720     0.1030 c1         1 K1E       0.321900
     10 C22         -0.1810    -0.8380     0.7080 c6         1 K1E       0.239500
     11 C24         -2.0280     0.2040    -0.7200 c6         1 K1E      -0.073400
     12 C27         -1.2300    -1.7700     1.3500 c6         1 K1E      -0.092900
     13 C30         -6.9040    -0.0910     0.7670 c6         1 K1E       0.108000
     14 C32         -6.2990     1.2190    -1.3000 c6         1 K1E       0.108000
     15 C33         -4.9610     0.4330    -1.3450 c6         1 K1E       0.154300
     16 C34         -8.6960     1.0740    -0.5880 c          1 K1E       0.644100
     17 N2           5.7240     5.1670     0.4070 na         1 K1E       0.139800
     18 N3           6.6590     4.2690    -0.0740 nc         1 K1E      -0.520800
     19 C4           5.9920     3.1260    -0.0670 cd         1 K1E       0.249900
     20 C5           4.6580     3.2800     0.4080 cd         1 K1E       0.190000
     21 C6           4.4900     4.5940     0.7120 cc         1 K1E      -0.236000
     22 N7           3.6790     2.3160     0.5530 nu         1 K1E      -0.895900
     23 N9           2.4440     0.3950     0.5980 nb         1 K1E      -0.347000
     24 N12          3.3230    -3.0520    -0.3400 nb         1 K1E      -0.638000
     25 N17          4.7170     0.3350    -0.1580 nb         1 K1E      -0.280000
     26 C18          4.2190    -5.2150    -1.0430 c3         1 K1E      -0.058600
     27 N20          5.1340    -6.5970     0.9960 n1         1 K1E      -0.467000
     28 N21          1.1170    -1.5260     0.6680 nu         1 K1E      -0.903100
     29 C23         -0.6300    -0.4630    -0.7220 c6         1 K1E      -0.092900
     30 C25         -3.1320    -0.6840    -0.0510 c6         1 K1E       0.189500
     31 C26         -2.6330    -1.1120     1.3720 c6         1 K1E      -0.073400
     32 N28         -4.4680     0.0200     0.0060 n3         1 K1E      -0.731600
     33 C29         -5.5350    -0.8160     0.6420 c6         1 K1E       0.154300
     34 N31         -7.3720     0.6130    -0.4640 n          1 K1E      -0.404800
     35 O35         -9.0690     1.8140    -1.4870 o          1 K1E      -0.546000
     36 O36         -9.5110     0.5890     0.3990 os         1 K1E      -0.457100
     37 C37        -10.8960     0.9810     0.3830 c3         1 K1E       0.170900
     38 H1           6.9250     6.6800     1.2490 h1         1 K1E       0.055033
     39 H2           6.3630     6.9960    -0.4210 h1         1 K1E       0.055033
     40 H3           5.2240     7.1440     0.9500 h1         1 K1E       0.055033
     41 H4           6.4600    -3.6580    -1.4830 ha         1 K1E       0.124000
     42 H5           6.6760    -1.1960    -1.0890 ha         1 K1E       0.139000
     43 H6          -0.1160     0.0770     1.3190 h1         1 K1E       0.075700
     44 H7          -1.9730     1.1740    -0.2070 hc         1 K1E       0.050200
     45 H8          -2.2780     0.4160    -1.7660 hc         1 K1E       0.050200
     46 H9          -1.2810    -2.7190     0.7980 hc         1 K1E       0.052700
     47 H10         -0.9260    -2.0190     2.3760 hc         1 K1E       0.052700
     48 H11         -7.6490    -0.8360     1.0790 h1         1 K1E       0.060450
     49 H12         -6.8310     0.6490     1.5750 h1         1 K1E       0.060450
     50 H13         -6.0940     2.2270    -0.9110 h1         1 K1E       0.060450
     51 H14         -6.6620     1.3430    -2.3310 h1         1 K1E       0.060450
     52 H15         -5.0980    -0.4530    -1.9820 h1         1 K1E       0.041200
     53 H16         -4.2440     1.0880    -1.8550 h1         1 K1E       0.041200
     54 H17          6.4900     2.2270    -0.4030 h4         1 K1E       0.064100
     55 H18          3.6470     5.1500     1.0980 h4         1 K1E       0.153000
     56 H19          2.7970     2.6780     0.9140 hn         1 K1E       0.512000
     57 H20          3.1640    -5.4670    -1.1990 hc         1 K1E       0.079700
     58 H21          4.7580    -5.5330    -1.9420 hc         1 K1E       0.079700
     59 H22          1.1280    -2.5260     0.4600 hn         1 K1E       0.525000
     60 H23          0.0990     0.2210    -1.1770 hc         1 K1E       0.052700
     61 H24         -0.6530    -1.3610    -1.3560 hc         1 K1E       0.052700
     62 H25         -3.2340    -1.5980    -0.6550 h1         1 K1E       0.026700
     63 H26         -3.3160    -1.8410     1.8230 hc         1 K1E       0.050200
     64 H27         -2.6210    -0.2380     2.0380 hc         1 K1E       0.050200
     65 H29         -5.2590    -1.1170     1.6600 h1         1 K1E       0.041200
     66 H30         -5.6810    -1.7390     0.0620 h1         1 K1E       0.041200
     67 H31        -11.4310     0.5240     1.2250 h1         1 K1E       0.047033
     68 H32        -10.9950     2.0710     0.4680 h1         1 K1E       0.047033
     69 H33        -11.3840     0.6570    -0.5450 h1         1 K1E       0.047033
@<TRIPOS>BOND
     1     1    17 1   
     2     1    38 1   
     3     1    39 1   
     4     1    40 1   
     5     2    22 1   
     6     2    23 ar  
     7     2    25 ar  
     8     3     4 ar  
     9     3    23 ar  
    10     3    28 1   
    11     4     8 ar  
    12     4    24 ar  
    13     5     6 ar  
    14     5    24 ar  
    15     5    26 1   
    16     6     7 ar  
    17     6    41 1   
    18     7     8 ar  
    19     7    42 1   
    20     8    25 ar  
    21     9    26 1   
    22     9    27 3   
    23    10    12 1   
    24    10    28 1   
    25    10    29 1   
    26    10    43 1   
    27    11    29 1   
    28    11    30 1   
    29    11    44 1   
    30    11    45 1   
    31    12    31 1   
    32    12    46 1   
    33    12    47 1   
    34    13    33 1   
    35    13    34 1   
    36    13    48 1   
    37    13    49 1   
    38    14    15 1   
    39    14    34 1   
    40    14    50 1   
    41    14    51 1   
    42    15    32 1   
    43    15    52 1   
    44    15    53 1   
    45    16    34 1   
    46    16    35 2   
    47    16    36 1   
    48    17    18 1   
    49    17    21 1   
    50    18    19 2   
    51    19    20 1   
    52    19    54 1   
    53    20    21 2   
    54    20    22 1   
    55    21    55 1   
    56    22    56 1   
    57    26    57 1   
    58    26    58 1   
    59    28    59 1   
    60    29    60 1   
    61    29    61 1   
    62    30    31 1   
    63    30    32 1   
    64    30    62 1   
    65    31    63 1   
    66    31    64 1   
    67    32    33 1   
    68    33    65 1   
    69    33    66 1   
    70    36    37 1   
    71    37    67 1   
    72    37    68 1   
    73    37    69 1   
@<TRIPOS>SUBSTRUCTURE
     1 K1E         1 TEMP              0 ****  ****    0 ROOT
