@<TRIPOS>MOLECULE
K1G
   30    31     1     0     0
SMALL
No Charge or Current Charge


@<TRIPOS>ATOM
      1 N1           0.5260    -1.6780    -0.3580 nb         1 K1G      -0.319000
      2 N3          -2.9150     0.4450     0.2300 na         1 K1G      -0.023100
      3 C4           0.4720    -0.3320    -0.2560 ca         1 K1G       0.463900
      4 C5          -0.6490    -2.3490    -0.2770 ca         1 K1G       0.198900
      5 C6          -1.9040    -0.4710     0.0130 ca         1 K1G       0.156500
      6 C7          -4.3300     0.0640     0.3710 c3         1 K1G       0.082900
      7 C8          -1.1570     1.6470     0.1380 cc         1 K1G       0.387800
      8 N            1.6850     0.3850    -0.3370 nh         1 K1G      -0.766300
      9 C            3.8130    -0.8320    -0.9250 c3         1 K1G      -0.105600
     10 C1           2.9530    -0.1900     0.1850 c3         1 K1G       0.232500
     11 C2           3.7700     0.8240     1.0150 c3         1 K1G      -0.105600
     12 C3           1.7580     1.6540    -1.1020 c3         1 K1G       0.206100
     13 C9          -0.7680     0.2780    -0.0630 ca         1 K1G      -0.387900
     14 N2          -1.8780    -1.8120    -0.0950 nb         1 K1G      -0.238000
     15 N4          -2.4800     1.7650     0.3180 nd         1 K1G      -0.530100
     16 H1          -0.5990    -3.4330    -0.3640 h5         1 K1G       0.044100
     17 H2          -4.6580    -0.4660    -0.5320 h1         1 K1G       0.058700
     18 H3          -4.4470    -0.5950     1.2400 h1         1 K1G       0.058700
     19 H4          -4.9490     0.9590     0.5090 h1         1 K1G       0.058700
     20 H5          -0.5720     2.5570     0.1770 h4         1 K1G       0.045800
     21 H6           4.1670    -0.0800    -1.6390 hc         1 K1G       0.042200
     22 H7           4.6890    -1.3290    -0.4930 hc         1 K1G       0.042200
     23 H8           3.2360    -1.5840    -1.4760 hc         1 K1G       0.042200
     24 H9           2.7020    -0.9990     0.8890 h1         1 K1G       0.099700
     25 H10          4.1470     1.6420     0.3900 hc         1 K1G       0.042200
     26 H11          3.1520     1.2540     1.8120 hc         1 K1G       0.042200
     27 H12          4.6300     0.3310     1.4830 hc         1 K1G       0.042200
     28 H13          1.7090     2.5160    -0.4240 h1         1 K1G       0.043367
     29 H14          2.6900     1.7160    -1.6770 h1         1 K1G       0.043367
     30 H15          0.9280     1.7240    -1.8180 h1         1 K1G       0.043367
@<TRIPOS>BOND
     1     1     3 ar  
     2     1     4 ar  
     3     2     5 1   
     4     2     6 1   
     5     2    15 1   
     6     3     8 1   
     7     3    13 ar  
     8     4    14 ar  
     9     4    16 1   
    10     5    13 ar  
    11     5    14 ar  
    12     6    17 1   
    13     6    18 1   
    14     6    19 1   
    15     7    13 1   
    16     7    15 2   
    17     7    20 1   
    18     8    10 1   
    19     8    12 1   
    20     9    10 1   
    21     9    21 1   
    22     9    22 1   
    23     9    23 1   
    24    10    11 1   
    25    10    24 1   
    26    11    25 1   
    27    11    26 1   
    28    11    27 1   
    29    12    28 1   
    30    12    29 1   
    31    12    30 1   
@<TRIPOS>SUBSTRUCTURE
     1 K1G         1 TEMP              0 ****  ****    0 ROOT
