@<TRIPOS>MOLECULE
K1G
   30    31     1     0     0
SMALL
abcg2


@<TRIPOS>ATOM
      1 N1           0.5420    -1.5320     0.3980 nb         1 K1G      -0.319000
      2 N3          -2.9260     0.3650    -0.0430 na         1 K1G      -0.023100
      3 C4           0.5400    -0.2550    -0.0070 ca         1 K1G       0.463900
      4 C5          -0.6070    -2.1520     0.6410 ca         1 K1G       0.198900
      5 C6          -1.8410    -0.4050     0.1410 ca         1 K1G       0.156500
      6 C7          -4.3080     0.0110     0.1590 c3         1 K1G       0.082900
      7 C8          -1.2840     1.6430    -0.5070 cc         1 K1G       0.387800
      8 N            1.7110     0.3480    -0.2490 nh         1 K1G      -0.766300
      9 C            3.7490    -0.5510    -1.3140 c3         1 K1G      -0.105600
     10 C1           2.9910    -0.3290    -0.0110 c3         1 K1G       0.232500
     11 C2           3.8240     0.4270     1.0180 c3         1 K1G      -0.105600
     12 C3           1.7420     1.7090    -0.7380 c3         1 K1G       0.206100
     13 C9          -0.7210     0.3870    -0.1550 ca         1 K1G      -0.387900
     14 N2          -1.8320    -1.6800     0.5410 nb         1 K1G      -0.238000
     15 N4          -2.5890     1.6050    -0.4320 nd         1 K1G      -0.530100
     16 H1          -0.5160    -3.1850     0.9630 h5         1 K1G       0.044100
     17 H2          -4.8820     0.2030    -0.7450 h1         1 K1G       0.058700
     18 H3          -4.3650    -1.0470     0.3970 h1         1 K1G       0.058700
     19 H4          -4.7330     0.5830     0.9820 h1         1 K1G       0.058700
     20 H5          -0.7990     2.5580    -0.8060 h4         1 K1G       0.045800
     21 H6           4.0720     0.3860    -1.7720 hc         1 K1G       0.042200
     22 H7           4.6450    -1.1410    -1.1200 hc         1 K1G       0.042200
     23 H8           3.1390    -1.0920    -2.0370 hc         1 K1G       0.042200
     24 H9           2.7410    -1.3010     0.4040 h1         1 K1G       0.099700
     25 H10          4.1430     1.4060     0.6570 hc         1 K1G       0.042200
     26 H11          3.2680     0.5690     1.9450 hc         1 K1G       0.042200
     27 H12          4.7240    -0.1420     1.2490 hc         1 K1G       0.042200
     28 H13          1.3730     2.4190     0.0050 h1         1 K1G       0.043367
     29 H14          2.7630     1.9860    -0.9780 h1         1 K1G       0.043367
     30 H15          1.1570     1.8170    -1.6520 h1         1 K1G       0.043367
@<TRIPOS>BOND
     1     1     3 ar  
     2     1     4 ar  
     3     2     5 1   
     4     2     6 1   
     5     2    15 1   
     6     3     8 1   
     7     3    13 ar  
     8     4    14 ar  
     9     4    16 1   
    10     5    13 ar  
    11     5    14 ar  
    12     6    17 1   
    13     6    18 1   
    14     6    19 1   
    15     7    13 1   
    16     7    15 2   
    17     7    20 1   
    18     8    10 1   
    19     8    12 1   
    20     9    10 1   
    21     9    21 1   
    22     9    22 1   
    23     9    23 1   
    24    10    11 1   
    25    10    24 1   
    26    11    25 1   
    27    11    26 1   
    28    11    27 1   
    29    12    28 1   
    30    12    29 1   
    31    12    30 1   
@<TRIPOS>SUBSTRUCTURE
     1 K1G         1 TEMP              0 ****  ****    0 ROOT
