@<TRIPOS>MOLECULE
K1H
   55    58     1     0     0
SMALL
No Charge or Current Charge


@<TRIPOS>ATOM
      1 C1           9.6860    -0.6710    -0.4240 c3         1 K1H       0.170900
      2 C3           7.5870     0.0460     0.5110 c          1 K1H       0.644100
      3 O4           8.1410     0.7420     1.3500 o          1 K1H      -0.546000
      4 C7           4.0440    -1.0900    -0.5960 c6         1 K1H       0.147800
      5 C9           3.8200     0.4230     1.2750 c6         1 K1H       0.147800
      6 C10          5.3110     0.8440     1.1800 c6         1 K1H       0.108000
      7 C11          1.7570    -0.3050     0.0570 c6         1 K1H       0.187500
      8 C12          1.1530    -0.7120    -1.3310 c6         1 K1H      -0.073400
      9 C13         -0.3700    -0.9930    -1.2710 c6         1 K1H      -0.091400
     10 C14         -1.1450     0.2220    -0.7210 c6         1 K1H       0.237500
     11 C15         -0.6040     0.5890     0.6790 c6         1 K1H      -0.091400
     12 C16          0.9170     0.8820     0.6390 c6         1 K1H      -0.073400
     13 C20         -4.3390     2.9710    -0.5820 ca         1 K1H       0.184900
     14 C22         -5.9260     1.3960    -0.0340 ca         1 K1H       0.074000
     15 C24         -5.2820    -0.9650     0.0910 ca         1 K1H      -0.025000
     16 C27         -7.2410     1.0360     0.3120 ca         1 K1H      -0.102000
     17 O2           8.2470    -0.7060    -0.4230 os         1 K1H      -0.457100
     18 N5           6.1900    -0.0790     0.4090 n          1 K1H      -0.404800
     19 C6           5.5480    -0.7420    -0.7650 c6         1 K1H       0.108000
     20 N8           3.2260     0.0360    -0.0430 n3         1 K1H      -0.718600
     21 N17         -2.5770    -0.1150    -0.6380 nu         1 K1H      -0.915100
     22 C18         -3.6280     0.7960    -0.4960 ca         1 K1H       0.415900
     23 N19         -3.3320     2.0900    -0.7140 nb         1 K1H      -0.293000
     24 N21         -5.6150     2.6900    -0.2540 nb         1 K1H      -0.219000
     25 C23         -4.9370     0.3870    -0.1470 ca         1 K1H      -0.195000
     26 C25         -6.6020    -1.3100     0.4370 ca         1 K1H      -0.040000
     27 C26         -7.5810    -0.3070     0.5460 ca         1 K1H      -0.052000
     28 C28         -6.9490    -2.6840     0.6770 cg         1 K1H       0.323000
     29 H1          10.0530     0.3490    -0.5970 h1         1 K1H       0.047700
     30 H2          10.0870    -1.0280     0.5340 h1         1 K1H       0.047700
     31 H3          10.0830    -1.3140    -1.2190 h1         1 K1H       0.047700
     32 H4           3.6910    -1.3960    -1.5880 h1         1 K1H       0.041200
     33 H5           3.9610    -1.9690     0.0610 h1         1 K1H       0.041200
     34 H6           3.7370    -0.4130     1.9840 h1         1 K1H       0.041200
     35 H7           3.2940     1.2760     1.7200 h1         1 K1H       0.041200
     36 H8           5.3600     1.8340     0.7050 h1         1 K1H       0.061450
     37 H9           5.7030     0.9580     2.2000 h1         1 K1H       0.061450
     38 H10          1.6340    -1.1630     0.7360 h1         1 K1H       0.022700
     39 H11          1.3540     0.0790    -2.0670 hc         1 K1H       0.052700
     40 H12          1.6270    -1.6230    -1.7120 hc         1 K1H       0.052700
     41 H13         -0.7350    -1.2430    -2.2760 hc         1 K1H       0.049700
     42 H14         -0.5520    -1.8750    -0.6410 hc         1 K1H       0.049700
     43 H15         -0.9830     1.0690    -1.4080 h1         1 K1H       0.086700
     44 H16         -1.1340     1.4680     1.0690 hc         1 K1H       0.049700
     45 H17         -0.8000    -0.2320     1.3840 hc         1 K1H       0.049700
     46 H18          1.2220     1.1100     1.6670 hc         1 K1H       0.052700
     47 H19          1.1020     1.7900     0.0470 hc         1 K1H       0.052700
     48 H21         -4.5390    -1.7540     0.0120 ha         1 K1H       0.115000
     49 H22         -8.0050     1.8040     0.4010 ha         1 K1H       0.141000
     50 H23          6.0810    -1.6730    -1.0070 h1         1 K1H       0.061450
     51 H24          5.6540    -0.0760    -1.6320 h1         1 K1H       0.061450
     52 H26         -2.8260    -1.0920    -0.5130 hn         1 K1H       0.494000
     53 H27         -8.6040    -0.5640     0.8130 ha         1 K1H       0.130000
     54 H20         -4.0990     4.0190    -0.7580 h5         1 K1H       0.046100
     55 N29         -7.2230    -3.8030     0.8660 n1         1 K1H      -0.451000
@<TRIPOS>BOND
     1     1    17 1   
     2     1    29 1   
     3     1    30 1   
     4     1    31 1   
     5     2     3 2   
     6     2    17 1   
     7     2    18 1   
     8     4    19 1   
     9     4    20 1   
    10     4    32 1   
    11     4    33 1   
    12     5     6 1   
    13     5    20 1   
    14     5    34 1   
    15     5    35 1   
    16     6    18 1   
    17     6    36 1   
    18     6    37 1   
    19     7     8 1   
    20     7    12 1   
    21     7    20 1   
    22     7    38 1   
    23     8     9 1   
    24     8    39 1   
    25     8    40 1   
    26     9    10 1   
    27     9    41 1   
    28     9    42 1   
    29    10    11 1   
    30    10    21 1   
    31    10    43 1   
    32    11    12 1   
    33    11    44 1   
    34    11    45 1   
    35    12    46 1   
    36    12    47 1   
    37    13    23 ar  
    38    13    24 ar  
    39    13    54 1   
    40    14    16 ar  
    41    14    24 ar  
    42    14    25 ar  
    43    15    25 ar  
    44    15    26 ar  
    45    15    48 1   
    46    16    27 ar  
    47    16    49 1   
    48    18    19 1   
    49    19    50 1   
    50    19    51 1   
    51    21    22 1   
    52    21    52 1   
    53    22    23 ar  
    54    22    25 ar  
    55    26    27 ar  
    56    26    28 1   
    57    27    53 1   
    58    28    55 3   
@<TRIPOS>SUBSTRUCTURE
     1 K1H         1 TEMP              0 ****  ****    0 ROOT
