@<TRIPOS>MOLECULE
K1H
   55    58     1     0     0
SMALL
bcc


@<TRIPOS>ATOM
      1 C1           9.3320    -1.2110    -0.1960 c3         1 K1H       0.147700
      2 C3           7.3770    -0.0580     0.4150 c          1 K1H       0.760100
      3 O4           7.9540     0.4200     1.3750 o          1 K1H      -0.595000
      4 C7           4.0190    -0.7850    -0.7890 c6         1 K1H       0.147800
      5 C9           3.9130     0.5750     1.1340 c6         1 K1H       0.147800
      6 C10          5.3030     1.1200     0.8670 c6         1 K1H       0.108000
      7 C11          1.8350    -0.1680     0.1340 c6         1 K1H       0.187500
      8 C12          1.1680    -0.7020    -1.1370 c6         1 K1H      -0.073400
      9 C13         -0.3070    -1.0280    -0.9280 c6         1 K1H      -0.091400
     10 C14         -1.0790     0.1760    -0.4130 c6         1 K1H       0.237500
     11 C15         -0.4440     0.6850     0.8750 c6         1 K1H      -0.091400
     12 C16          1.0250     1.0250     0.6550 c6         1 K1H      -0.073400
     13 C20         -4.2370     2.8240    -0.3930 ca         1 K1H       0.710900
     14 C22         -5.8320     1.2620    -0.0860 ca         1 K1H       0.467600
     15 C24         -5.2440    -1.0930     0.0690 ca         1 K1H      -0.043000
     16 C27         -7.1900     0.9110     0.0650 ca         1 K1H      -0.185300
     17 O2           7.9700    -0.8870    -0.4480 os         1 K1H      -0.433900
     18 N5           6.0850     0.1680     0.1060 n          1 K1H      -0.471800
     19 C6           5.4190    -0.2820    -1.1000 c6         1 K1H       0.108000
     20 N8           3.2290     0.2230    -0.1010 n3         1 K1H      -0.718600
     21 N17         -2.4750    -0.1870    -0.2380 nu         1 K1H      -0.859900
     22 C18         -3.4850     0.6800    -0.2360 ca         1 K1H       0.744200
     23 N19         -3.2150     1.9670    -0.3970 nb         1 K1H      -0.819000
     24 N21         -5.5090     2.5690    -0.2430 nb         1 K1H      -0.745000
     25 C23         -4.8540     0.2430    -0.0760 ca         1 K1H      -0.325600
     26 C25         -6.5800    -1.4090     0.2110 ca         1 K1H      -0.040000
     27 C26         -7.5620    -0.3960     0.2100 ca         1 K1H      -0.070000
     28 C28         -6.9720    -2.7710     0.3580 cg         1 K1H       0.233800
     29 H1           9.9700    -0.3280    -0.2270 h1         1 K1H       0.047700
     30 H2           9.4580    -1.7100     0.7650 h1         1 K1H       0.047700
     31 H3           9.6270    -1.8910    -0.9900 h1         1 K1H       0.047700
     32 H4           3.5650    -1.0350    -1.7470 h1         1 K1H       0.041200
     33 H5           4.0870    -1.7200    -0.2070 h1         1 K1H       0.041200
     34 H6           3.9870    -0.2910     1.8150 h1         1 K1H       0.041200
     35 H7           3.3660     1.3520     1.6650 h1         1 K1H       0.041200
     36 H8           5.2230     2.0610     0.3100 h1         1 K1H       0.061450
     37 H9           5.7950     1.3340     1.8120 h1         1 K1H       0.061450
     38 H10          1.7890    -0.9730     0.8930 h1         1 K1H       0.022700
     39 H11          1.2760     0.0400    -1.9360 hc         1 K1H       0.052700
     40 H12          1.6570    -1.6130    -1.4810 hc         1 K1H       0.052700
     41 H13         -0.7390    -1.3780    -1.8690 hc         1 K1H       0.049700
     42 H14         -0.3970    -1.8510    -0.2090 hc         1 K1H       0.049700
     43 H15         -1.0340     0.9710    -1.1630 h1         1 K1H       0.086700
     44 H16         -0.9770     1.5680     1.2290 hc         1 K1H       0.049700
     45 H17         -0.5420    -0.0830     1.6510 hc         1 K1H       0.049700
     46 H18          1.4280     1.3970     1.5970 hc         1 K1H       0.052700
     47 H19          1.1100     1.8430    -0.0690 hc         1 K1H       0.052700
     48 H21         -4.5210    -1.8970     0.0680 ha         1 K1H       0.133000
     49 H22         -7.9310     1.6990     0.0590 ha         1 K1H       0.159000
     50 H23          5.9790    -1.0810    -1.5750 h1         1 K1H       0.061450
     51 H24          5.3520     0.5490    -1.8110 h1         1 K1H       0.061450
     52 H26         -2.6640    -1.1580    -0.0500 hn         1 K1H       0.438800
     53 H27         -8.6050    -0.6590     0.3230 ha         1 K1H       0.148000
     54 H20         -3.9640     3.8670    -0.5260 h5         1 K1H       0.046100
     55 N29         -7.2950    -3.8700     0.4840 n1         1 K1H      -0.361800
@<TRIPOS>BOND
     1     1    17 1   
     2     1    29 1   
     3     1    30 1   
     4     1    31 1   
     5     2     3 2   
     6     2    17 1   
     7     2    18 1   
     8     4    19 1   
     9     4    20 1   
    10     4    32 1   
    11     4    33 1   
    12     5     6 1   
    13     5    20 1   
    14     5    34 1   
    15     5    35 1   
    16     6    18 1   
    17     6    36 1   
    18     6    37 1   
    19     7     8 1   
    20     7    12 1   
    21     7    20 1   
    22     7    38 1   
    23     8     9 1   
    24     8    39 1   
    25     8    40 1   
    26     9    10 1   
    27     9    41 1   
    28     9    42 1   
    29    10    11 1   
    30    10    21 1   
    31    10    43 1   
    32    11    12 1   
    33    11    44 1   
    34    11    45 1   
    35    12    46 1   
    36    12    47 1   
    37    13    23 ar  
    38    13    24 ar  
    39    13    54 1   
    40    14    16 ar  
    41    14    24 ar  
    42    14    25 ar  
    43    15    25 ar  
    44    15    26 ar  
    45    15    48 1   
    46    16    27 ar  
    47    16    49 1   
    48    18    19 1   
    49    19    50 1   
    50    19    51 1   
    51    21    22 1   
    52    21    52 1   
    53    22    23 ar  
    54    22    25 ar  
    55    26    27 ar  
    56    26    28 1   
    57    27    53 1   
    58    28    55 3   
@<TRIPOS>SUBSTRUCTURE
     1 K1H         1 TEMP              0 ****  ****    0 ROOT
