@<TRIPOS>MOLECULE
K1J
   29    30     1     0     0
SMALL
abcg2


@<TRIPOS>ATOM
      1 N1         -16.5700   -13.5200    -4.7870 nc         1 K1J      -0.785000
      2 C4         -19.2620   -15.8420    -5.7940 c6         1 K1J       0.209500
      3 C5         -19.1140   -17.1900    -5.0890 c3         1 K1J      -0.103100
      4 C6         -17.6390   -14.2980    -4.8050 cd         1 K1J       0.720300
      5 C7         -16.5070   -12.8460    -3.6020 cc         1 K1J       0.628300
      6 C8         -15.3750   -11.9030    -3.3540 c3         1 K1J      -0.114400
      7 N          -17.9960   -15.0900    -5.8190 nh         1 K1J      -0.773300
      8 O          -18.8400   -16.6320    -8.0800 os         1 K1J      -0.466000
      9 C1         -19.7680   -15.9340    -7.2400 c6         1 K1J       0.166300
     10 C2         -17.4570   -16.3680    -7.8210 c6         1 K1J       0.145600
     11 C3         -17.2280   -15.0750    -7.0660 c6         1 K1J       0.196800
     12 N2         -17.4390   -13.0340    -2.6960 nd         1 K1J      -0.528100
     13 S          -18.5410   -14.1490    -3.3050 ss         1 K1J      -0.052300
     14 H1         -19.9920   -15.2320    -5.2520 h1         1 K1J       0.064700
     15 H2         -18.6320   -17.0570    -4.1200 hc         1 K1J       0.051367
     16 H3         -20.0920   -17.6390    -4.9180 hc         1 K1J       0.051367
     17 H4         -18.5140   -17.8830    -5.6790 hc         1 K1J       0.051367
     18 H5         -14.4250   -12.4390    -3.4010 hc         1 K1J       0.059700
     19 H6         -15.3560   -11.1300    -4.1250 hc         1 K1J       0.059700
     20 H7         -15.4740   -11.4340    -2.3770 hc         1 K1J       0.059700
     21 H11        -19.8690   -14.9050    -7.6060 h1         1 K1J       0.045700
     22 H12        -17.0350   -17.2030    -7.2530 h1         1 K1J       0.055700
     23 H13        -16.9460   -16.3160    -8.7840 h1         1 K1J       0.055700
     24 H14        -16.1700   -14.9800    -6.8280 h1         1 K1J       0.069700
     25 H15        -17.5140   -14.2120    -7.6750 h1         1 K1J       0.069700
     26 C          -21.1060   -16.6310    -7.3710 c3         1 K1J      -0.089100
     27 H8         -21.8570   -16.1270    -6.7600 hc         1 K1J       0.050033
     28 H9         -21.4330   -16.6040    -8.4110 hc         1 K1J       0.050033
     29 H10        -21.0390   -17.6730    -7.0580 hc         1 K1J       0.050033
@<TRIPOS>BOND
     1     1     4 2   
     2     1     5 1   
     3     2     3 1   
     4     2     7 1   
     5     2     9 1   
     6     2    14 1   
     7     3    15 1   
     8     3    16 1   
     9     3    17 1   
    10     4     7 1   
    11     4    13 1   
    12     5     6 1   
    13     5    12 2   
    14     6    18 1   
    15     6    19 1   
    16     6    20 1   
    17     7    11 1   
    18     8     9 1   
    19     8    10 1   
    20     9    21 1   
    21     9    26 1   
    22    10    11 1   
    23    10    22 1   
    24    10    23 1   
    25    11    24 1   
    26    11    25 1   
    27    12    13 1   
    28    26    27 1   
    29    26    28 1   
    30    26    29 1   
@<TRIPOS>SUBSTRUCTURE
     1 K1J         1 TEMP              0 ****  ****    0 ROOT
