@<TRIPOS>MOLECULE
K1J
   29    30     1     0     0
SMALL
No Charge or Current Charge


@<TRIPOS>ATOM
      1 N1         -16.5330   -13.5410    -4.7400 nc         1 K1J      -0.785000
      2 C4         -19.3310   -15.7480    -5.8310 c6         1 K1J       0.209500
      3 C5         -19.1880   -16.9900    -4.9050 c3         1 K1J      -0.103100
      4 C6         -17.7270   -14.0630    -4.8420 cd         1 K1J       0.720300
      5 C7         -16.5910   -12.6760    -3.6780 cc         1 K1J       0.628300
      6 C8         -15.3370   -11.9310    -3.3330 c3         1 K1J      -0.114400
      7 N          -18.0330   -14.9990    -5.8320 nh         1 K1J      -0.773300
      8 O          -18.7110   -16.7900    -8.0030 os         1 K1J      -0.466000
      9 C1         -19.7700   -16.1030    -7.2990 c6         1 K1J       0.166300
     10 C2         -17.5160   -15.9810    -8.1230 c6         1 K1J       0.145600
     11 C3         -16.9660   -15.5740    -6.7240 c6         1 K1J       0.196800
     12 N2         -17.7050   -12.4950    -2.9750 nd         1 K1J      -0.528100
     13 S          -18.8740   -13.4810    -3.6460 ss         1 K1J      -0.052300
     14 H1         -20.1280   -15.1190    -5.4100 h1         1 K1J       0.064700
     15 H2         -18.8260   -16.7030    -3.9110 hc         1 K1J       0.051367
     16 H3         -20.1500   -17.4950    -4.7610 hc         1 K1J       0.051367
     17 H4         -18.4840   -17.7230    -5.3180 hc         1 K1J       0.051367
     18 H5         -14.5310   -12.6300    -3.0840 hc         1 K1J       0.059700
     19 H6         -15.0100   -11.3160    -4.1780 hc         1 K1J       0.059700
     20 H7         -15.4900   -11.2700    -2.4720 hc         1 K1J       0.059700
     21 H11        -19.9830   -15.1620    -7.8290 h1         1 K1J       0.045700
     22 H12        -16.7510   -16.5460    -8.6730 h1         1 K1J       0.055700
     23 H13        -17.7510   -15.0780    -8.7030 h1         1 K1J       0.055700
     24 H14        -16.5180   -16.4580    -6.2480 h1         1 K1J       0.069700
     25 H15        -16.1490   -14.8550    -6.8840 h1         1 K1J       0.069700
     26 C          -21.0390   -16.9870    -7.3960 c3         1 K1J      -0.089100
     27 H8         -21.8710   -16.5440    -6.8360 hc         1 K1J       0.050033
     28 H9         -21.3610   -17.0900    -8.4390 hc         1 K1J       0.050033
     29 H10        -20.8640   -17.9960    -7.0030 hc         1 K1J       0.050033
@<TRIPOS>BOND
     1     1     4 2   
     2     1     5 1   
     3     2     3 1   
     4     2     7 1   
     5     2     9 1   
     6     2    14 1   
     7     3    15 1   
     8     3    16 1   
     9     3    17 1   
    10     4     7 1   
    11     4    13 1   
    12     5     6 1   
    13     5    12 2   
    14     6    18 1   
    15     6    19 1   
    16     6    20 1   
    17     7    11 1   
    18     8     9 1   
    19     8    10 1   
    20     9    21 1   
    21     9    26 1   
    22    10    11 1   
    23    10    22 1   
    24    10    23 1   
    25    11    24 1   
    26    11    25 1   
    27    12    13 1   
    28    26    27 1   
    29    26    28 1   
    30    26    29 1   
@<TRIPOS>SUBSTRUCTURE
     1 K1J         1 TEMP              0 ****  ****    0 ROOT
