@<TRIPOS>MOLECULE
K1L
   66    72     1     0     0
SMALL
No Charge or Current Charge


@<TRIPOS>ATOM
      1 N1           8.8590    29.7270    16.6740 nb         1 K1L      -0.327000
      2 C2           9.2860    28.4430    16.6030 ca         1 K1L       0.150900
      3 C4           7.1810    27.5450    16.5980 ca         1 K1L       0.103500
      4 C5           6.6440    28.8070    16.6560 ca         1 K1L      -0.064600
      5 C6           7.5280    29.9070    16.7020 ca         1 K1L       0.430900
      6 C12          1.3850    31.6670    17.3530 cc         1 K1L       0.676100
      7 C14          1.6700    29.7260    18.7290 cc         1 K1L       0.161000
      8 C15          2.9620    30.0120    18.9770 cd         1 K1L       0.133500
      9 C16          3.5410    31.2220    18.3580 c          1 K1L       0.658000
     10 C22          5.8000    24.7070    18.2130 c5         1 K1L       0.119300
     11 C24          4.2760    23.8470    16.5960 c5         1 K1L       0.139300
     12 C25          2.9020    23.8560    15.8770 c3         1 K1L       0.233600
     13 C34          0.0290    25.3970    19.2970 c5         1 K1L      -0.079700
     14 C18          2.4420    28.1840    20.0420 cc         1 K1L       0.435400
     15 C21          6.1780    25.2380    16.7970 c5         1 K1L       0.282300
     16 C23          4.2740    24.4610    18.0220 c5         1 K1L       0.189300
     17 C31         -0.0290    27.9090    19.2950 c5         1 K1L       0.038300
     18 C32         -0.3690    27.3260    17.8830 c5         1 K1L       0.107300
     19 C33          0.5160    26.0320    17.9660 c5         1 K1L       0.258300
     20 C35          0.9640    24.3130    19.8750 c3         1 K1L       0.241600
     21 C36         -0.2260    26.6480    20.2180 c5         1 K1L      -0.066400
     22 C8           4.9550    27.4730    16.6440 cc         1 K1L       0.450700
     23 N11          2.6560    31.9650    17.5690 nd         1 K1L      -0.732100
     24 N13          0.8360    30.5280    17.9540 na         1 K1L      -0.885200
     25 N17          3.4650    29.0230    19.8230 nd         1 K1L      -0.596000
     26 N19          1.2900    28.5780    19.3600 na         1 K1L      -0.176500
     27 N3           8.5120    27.3310    16.5720 nb         1 K1L      -0.217000
     28 N6           7.1090    31.1940    16.8240 nv         1 K1L      -1.047900
     29 N7           5.2480    28.7860    16.6740 nd         1 K1L      -0.563100
     30 N9           6.1160    26.6890    16.6080 na         1 K1L      -0.290300
     31 O23          3.7740    23.4720    18.9590 os         1 K1L      -0.569400
     32 O24          5.2750    24.6060    15.8580 os         1 K1L      -0.443000
     33 O25          2.4270    25.2070    15.7870 os         1 K1L      -0.611400
     34 O32         -1.7850    27.0800    17.7390 oh         1 K1L      -0.620000
     35 O33          0.2520    25.1110    16.8800 os         1 K1L      -0.577400
     36 O35          2.2270    24.9170    20.1540 os         1 K1L      -0.633400
     37 P25          0.8780    25.4580    15.4340 p5         1 K1L       1.402800
     38 P35          3.4890    23.9710    20.4670 p5         1 K1L       1.401800
     39 O25A         0.4060    24.5020    14.3900 o          1 K1L      -0.818500
     40 O25B         0.6470    26.8720    15.0240 o          1 K1L      -0.818500
     41 O35A         4.6200    24.7650    21.0240 o          1 K1L      -0.812000
     42 O35B         3.1080    22.8410    21.3610 o          1 K1L      -0.812000
     43 H1          10.3630    28.2870    16.5800 h5         1 K1L       0.021100
     44 H3           6.0270    25.4390    18.9980 h1         1 K1L       0.117700
     45 H4           4.6220    22.8050    16.6420 h1         1 K1L       0.056700
     46 H5           2.2030    23.2290    16.4470 h1         1 K1L       0.034200
     47 H6           3.0190    23.4180    14.8770 h1         1 K1L       0.034200
     48 H7          -0.9250    24.8840    19.1240 hc         1 K1L       0.063700
     49 H8           2.4800    27.3020    20.6680 h5         1 K1L       0.117100
     50 H9           7.2110    24.9540    16.5620 h2         1 K1L       0.092700
     51 H10          3.6860    25.3850    18.0830 h1         1 K1L       0.062700
     52 H11         -0.7760    28.6660    19.5710 h1         1 K1L       0.029700
     53 H12         -0.0170    28.0050    17.0960 h1         1 K1L       0.087700
     54 H13          1.5870    26.2760    17.9960 h1         1 K1L       0.055700
     55 H14          0.5190    23.9040    20.7920 h1         1 K1L       0.029700
     56 H15          1.0660    23.4980    19.1460 h1         1 K1L       0.029700
     57 H16         -1.2530    26.6180    20.6000 hc         1 K1L       0.051700
     58 H17          0.4090    26.6680    21.1110 hc         1 K1L       0.051700
     59 H18          3.9600    27.0460    16.6520 h5         1 K1L       0.112800
     60 H19         -0.1460    30.3240    17.8110 hn         1 K1L       0.502000
     61 H20          7.8060    31.8750    17.1070 hn         1 K1L       0.492500
     62 H21          6.1850    31.3220    17.2430 hn         1 K1L       0.492500
     63 H22         -2.2260    27.9500    17.6350 ho         1 K1L       0.409000
     64 F22          6.4960    23.5190    18.4910 f          1 K1L      -0.258000
     65 O16          4.6980    31.6040    18.4910 o          1 K1L      -0.564100
     66 H2           0.7440    32.2850    16.7350 h5         1 K1L       0.026800
@<TRIPOS>BOND
     1     1     2 ar  
     2     1     5 ar  
     3     2    27 ar  
     4     2    43 1   
     5     3     4 ar  
     6     3    27 ar  
     7     3    30 1   
     8     4     5 ar  
     9     4    29 1   
    10     5    28 1   
    11     6    23 2   
    12     6    24 1   
    13     6    66 1   
    14     7     8 2   
    15     7    24 1   
    16     7    26 1   
    17     8     9 1   
    18     8    25 1   
    19     9    23 1   
    20     9    65 2   
    21    10    15 1   
    22    10    16 1   
    23    10    44 1   
    24    10    64 1   
    25    11    12 1   
    26    11    16 1   
    27    11    32 1   
    28    11    45 1   
    29    12    33 1   
    30    12    46 1   
    31    12    47 1   
    32    13    19 1   
    33    13    20 1   
    34    13    21 1   
    35    13    48 1   
    36    14    25 2   
    37    14    26 1   
    38    14    49 1   
    39    15    30 1   
    40    15    32 1   
    41    15    50 1   
    42    16    31 1   
    43    16    51 1   
    44    17    18 1   
    45    17    21 1   
    46    17    26 1   
    47    17    52 1   
    48    18    19 1   
    49    18    34 1   
    50    18    53 1   
    51    19    35 1   
    52    19    54 1   
    53    20    36 1   
    54    20    55 1   
    55    20    56 1   
    56    21    57 1   
    57    21    58 1   
    58    22    29 2   
    59    22    30 1   
    60    22    59 1   
    61    24    60 1   
    62    28    61 1   
    63    28    62 1   
    64    31    38 1   
    65    33    37 1   
    66    34    63 1   
    67    35    37 1   
    68    36    38 1   
    69    37    39 1   
    70    37    40 1   
    71    38    41 1   
    72    38    42 1   
@<TRIPOS>SUBSTRUCTURE
     1 K1L         1 TEMP              0 ****  ****    0 ROOT
