@<TRIPOS>MOLECULE
K1L
   66    72     1     0     0
SMALL
abcg2


@<TRIPOS>ATOM
      1 N1           8.7530    29.5650    16.8230 nb         1 K1L      -0.327000
      2 C2           9.1490    28.2990    16.9080 ca         1 K1L       0.150900
      3 C4           7.1220    27.4890    16.6870 ca         1 K1L       0.103500
      4 C5           6.5620    28.7520    16.5650 ca         1 K1L      -0.064600
      5 C6           7.4540    29.8360    16.6620 ca         1 K1L       0.430900
      6 C12          1.2280    31.9790    17.9370 cc         1 K1L       0.676100
      7 C14          1.5140    29.8870    18.8420 cc         1 K1L       0.161000
      8 C15          2.8600    30.1290    18.9770 cd         1 K1L       0.133500
      9 C16          3.4140    31.3790    18.5270 c          1 K1L       0.658000
     10 C22          5.8410    24.7530    18.1770 c5         1 K1L       0.119300
     11 C24          4.3470    23.7520    16.6560 c5         1 K1L       0.139300
     12 C25          3.0020    23.7090    15.9760 c3         1 K1L       0.233600
     13 C34          0.0430    25.4750    19.2540 c5         1 K1L      -0.079700
     14 C18          2.5050    28.1720    19.7090 cc         1 K1L       0.435400
     15 C21          6.1750    25.1810    16.7450 c5         1 K1L       0.282300
     16 C23          4.3730    24.3710    18.0530 c5         1 K1L       0.189300
     17 C31         -0.0100    27.9460    19.2280 c5         1 K1L       0.038300
     18 C32         -0.2190    27.3810    17.8080 c5         1 K1L       0.107300
     19 C33          0.5000    26.0360    17.9040 c5         1 K1L       0.258300
     20 C35          0.9280    24.3790    19.8140 c3         1 K1L       0.241600
     21 C36         -0.1220    26.7200    20.1520 c5         1 K1L      -0.066400
     22 C8           4.9570    27.3860    16.3870 cc         1 K1L       0.450700
     23 N11          2.4790    32.2760    18.0160 nd         1 K1L      -0.732100
     24 N13          0.6690    30.8100    18.3210 na         1 K1L      -0.885200
     25 N17          3.4620    29.0320    19.5300 nd         1 K1L      -0.596000
     26 N19          1.2750    28.6400    19.3100 na         1 K1L      -0.176500
     27 N3           8.4100    27.2040    16.8650 nb         1 K1L      -0.217000
     28 N6           7.0600    31.1150    16.5750 nv         1 K1L      -1.047900
     29 N7           5.2080    28.6630    16.3700 nd         1 K1L      -0.563100
     30 N9           6.0770    26.6190    16.5760 na         1 K1L      -0.290300
     31 O23          3.9060    23.4560    18.9960 os         1 K1L      -0.569400
     32 O24          5.2620    24.5440    15.9030 os         1 K1L      -0.443000
     33 O25          2.5160    25.0170    15.7930 os         1 K1L      -0.611400
     34 O32         -1.5780    27.1400    17.5710 oh         1 K1L      -0.620000
     35 O33          0.2150    25.1240    16.8760 os         1 K1L      -0.577400
     36 O35          2.1860    24.9220    20.1650 os         1 K1L      -0.633400
     37 P25          0.9320    25.2560    15.4010 p5         1 K1L       1.402800
     38 P35          3.4810    23.9760    20.5100 p5         1 K1L       1.401800
     39 O25A         0.4220    24.0930    14.6160 o          1 K1L      -0.818500
     40 O25B         0.8670    26.6650    14.9090 o          1 K1L      -0.818500
     41 O35A         4.5130    24.9250    21.0260 o          1 K1L      -0.812000
     42 O35B         3.0620    22.7370    21.2270 o          1 K1L      -0.812000
     43 H1          10.2160    28.1500    17.0370 h5         1 K1L       0.021100
     44 H3           6.0590    25.5180    18.9200 h1         1 K1L       0.117700
     45 H4           4.7100    22.7170    16.7200 h1         1 K1L       0.056700
     46 H5           2.3430    23.0980    16.6020 h1         1 K1L       0.034200
     47 H6           3.0970    23.1930    15.0150 h1         1 K1L       0.034200
     48 H7          -0.9410    25.0220    19.1020 hc         1 K1L       0.063700
     49 H8           2.6270    27.1810    20.1180 h5         1 K1L       0.117100
     50 H9           7.2060    24.9110    16.4960 h2         1 K1L       0.092700
     51 H10          3.7820    25.2970    18.0510 h1         1 K1L       0.062700
     52 H11         -0.7750    28.6870    19.4700 h1         1 K1L       0.029700
     53 H12          0.2180    28.0310    17.0420 h1         1 K1L       0.087700
     54 H13          1.5770    26.2460    17.9480 h1         1 K1L       0.055700
     55 H14          0.4500    23.9340    20.6920 h1         1 K1L       0.029700
     56 H15          1.0310    23.5870    19.0640 h1         1 K1L       0.029700
     57 H16         -1.1070    26.7250    20.6150 hc         1 K1L       0.051700
     58 H17          0.5930    26.7590    20.9730 hc         1 K1L       0.051700
     59 H18          3.9800    26.9470    16.2470 h5         1 K1L       0.112800
     60 H19         -0.3260    30.6650    18.2160 hn         1 K1L       0.502000
     61 H20          7.7310    31.8280    16.8110 hn         1 K1L       0.492500
     62 H21          6.0940    31.3440    16.7490 hn         1 K1L       0.492500
     63 H22         -2.0280    27.9870    17.4820 ho         1 K1L       0.409000
     64 F22          6.5850    23.6220    18.4800 f          1 K1L      -0.258000
     65 O16          4.6030    31.6690    18.5650 o          1 K1L      -0.564100
     66 H2           0.5280    32.7010    17.5340 h5         1 K1L       0.026800
@<TRIPOS>BOND
     1     1     2 ar  
     2     1     5 ar  
     3     2    27 ar  
     4     2    43 1   
     5     3     4 ar  
     6     3    27 ar  
     7     3    30 1   
     8     4     5 ar  
     9     4    29 1   
    10     5    28 1   
    11     6    23 2   
    12     6    24 1   
    13     6    66 1   
    14     7     8 2   
    15     7    24 1   
    16     7    26 1   
    17     8     9 1   
    18     8    25 1   
    19     9    23 1   
    20     9    65 2   
    21    10    15 1   
    22    10    16 1   
    23    10    44 1   
    24    10    64 1   
    25    11    12 1   
    26    11    16 1   
    27    11    32 1   
    28    11    45 1   
    29    12    33 1   
    30    12    46 1   
    31    12    47 1   
    32    13    19 1   
    33    13    20 1   
    34    13    21 1   
    35    13    48 1   
    36    14    25 2   
    37    14    26 1   
    38    14    49 1   
    39    15    30 1   
    40    15    32 1   
    41    15    50 1   
    42    16    31 1   
    43    16    51 1   
    44    17    18 1   
    45    17    21 1   
    46    17    26 1   
    47    17    52 1   
    48    18    19 1   
    49    18    34 1   
    50    18    53 1   
    51    19    35 1   
    52    19    54 1   
    53    20    36 1   
    54    20    55 1   
    55    20    56 1   
    56    21    57 1   
    57    21    58 1   
    58    22    29 2   
    59    22    30 1   
    60    22    59 1   
    61    24    60 1   
    62    28    61 1   
    63    28    62 1   
    64    31    38 1   
    65    33    37 1   
    66    34    63 1   
    67    35    37 1   
    68    36    38 1   
    69    37    39 1   
    70    37    40 1   
    71    38    41 1   
    72    38    42 1   
@<TRIPOS>SUBSTRUCTURE
     1 K1L         1 TEMP              0 ****  ****    0 ROOT
