@<TRIPOS>MOLECULE
K1N
   87    93     1     0     0
SMALL
No Charge or Current Charge


@<TRIPOS>ATOM
      1 CAM         23.0640    25.4280    26.9690 c3         1 K1N      -0.178100
      2 CAS         26.8010    24.2320    19.4000 c5         1 K1N      -0.077400
      3 CAU         27.5880    26.3160    20.6570 c          1 K1N       0.588000
      4 CAK         22.9690    24.9310    25.5330 c          1 K1N       0.605100
      5 CAQ         24.8100    23.8210    20.6900 c5         1 K1N       0.105000
      6 CAR         25.7730    23.1150    19.7040 c5         1 K1N      -0.094400
      7 CAT         27.0690    24.8360    20.8160 c5         1 K1N       0.077600
      8 N           23.8570    25.5190    24.6620 ns         1 K1N      -0.496900
      9 CA          23.9360    25.2470    23.2050 c3         1 K1N       0.036700
     10 C           25.4240    25.2420    22.7280 c          1 K1N       0.606100
     11 O           26.3060    25.7390    23.4220 o          1 K1N      -0.608100
     12 CB          23.0890    26.2770    22.4070 c3         1 K1N      -0.050100
     13 CG          21.6180    26.3090    22.8220 ca         1 K1N      -0.059300
     14 CD1         20.6970    25.3330    22.3710 ca         1 K1N       0.141000
     15 CD2         21.1650    27.3320    23.6820 ca         1 K1N      -0.101000
     16 CE1         19.3530    25.3870    22.7790 ca         1 K1N      -0.098000
     17 CE2         19.8210    27.3810    24.0880 ca         1 K1N      -0.112000
     18 CZ          18.9130    26.4090    23.6370 ca         1 K1N      -0.104000
     19 CAX         28.0590    23.9480    21.5740 c2         1 K1N      -0.201200
     20 CAY         29.3750    24.1240    21.3600 c2         1 K1N      -0.215200
     21 CAZ         29.8440    25.1570    20.3380 c5         1 K1N       0.144900
     22 CBA         31.1990    25.7710    20.7640 c5         1 K1N      -0.087400
     23 CBB         31.1860    27.1020    19.9680 c5         1 K1N      -0.087400
     24 CBC         29.7290    27.6220    20.2050 c5         1 K1N       0.031700
     25 CBD         29.2790    28.4750    18.9640 c          1 K1N       0.614100
     26 CBG         29.9180    30.5420    17.6380 c5         1 K1N       0.023700
     27 CBH         30.5080    29.8730    16.3590 c          1 K1N       0.582000
     28 CBK         30.8360    30.2350    13.8790 c5         1 K1N      -0.035300
     29 CBL         32.3230    30.5570    13.4930 c          1 K1N       0.722000
     30 CBN         29.8550    30.9960    12.9410 c5         1 K1N      -0.072400
     31 CBO         29.6970    32.3460    13.6740 c5         1 K1N      -0.084400
     32 CBP         29.5110    31.9010    15.1550 c5         1 K1N       0.157900
     33 CBQ         29.9880    33.0750    16.0280 c2         1 K1N      -0.207200
     34 CBR         30.5540    33.0020    17.2530 c2         1 K1N      -0.200200
     35 CBS         30.8610    31.7130    18.0120 c5         1 K1N      -0.040500
     36 CBT         30.5110    31.9100    19.5080 c5         1 K1N      -0.093400
     37 CBU         30.5030    30.4540    20.0360 c5         1 K1N       0.109000
     38 NAP         25.7320    24.6910    21.4590 n          1 K1N      -0.392800
     39 NAW         28.9780    26.3510    20.3980 n          1 K1N      -0.378800
     40 NBF         29.9700    29.7080    18.8720 n          1 K1N      -0.392800
     41 NBJ         30.3940    30.7090    15.2270 n          1 K1N      -0.367800
     42 OAL         22.1730    24.0720    25.1860 o          1 K1N      -0.611100
     43 OBE         28.4900    28.1170    18.0950 o          1 K1N      -0.590100
     44 Cl1         21.1950    24.0290    21.2910 cl         1 K1N      -0.216000
     45 HAM         22.9330    26.5160    26.9770 hc         1 K1N       0.057700
     46 HZL         22.3510    24.9310    27.6360 hc         1 K1N       0.057700
     47 HZM         24.0950    25.3140    27.3200 hc         1 K1N       0.057700
     48 HAS         27.7030    23.8490    18.9110 hc         1 K1N       0.075700
     49 HZP         26.3680    24.9820    18.7270 hc         1 K1N       0.075700
     50 HZN         24.0680    24.4200    20.1460 h1         1 K1N       0.053700
     51 HAQ         24.2830    23.0940    21.3210 h1         1 K1N       0.053700
     52 HZO         25.2590    22.7540    18.8050 hc         1 K1N       0.053700
     53 HAR         26.2540    22.2490    20.1740 hc         1 K1N       0.053700
     54 H           24.5100    26.1860    25.0590 hn         1 K1N       0.330500
     55 HA          23.5390    24.2420    23.0240 h1         1 K1N       0.096700
     56 HB2         23.5370    27.2690    22.5440 hc         1 K1N       0.076700
     57 HB1         23.1680    26.0790    21.3330 hc         1 K1N       0.076700
     58 HD2         21.8580    28.0890    24.0430 ha         1 K1N       0.114000
     59 HE1         18.6520    24.6340    22.4280 ha         1 K1N       0.125000
     60 HE2         19.4830    28.1720    24.7530 ha         1 K1N       0.111000
     61 HZ          17.8720    26.4470    23.9510 ha         1 K1N       0.112000
     62 HAX         27.7120    23.2030    22.2920 ha         1 K1N       0.183000
     63 HAY         30.1020    23.5100    21.8950 ha         1 K1N       0.184000
     64 HAZ         29.8860    24.7490    19.3180 h1         1 K1N       0.077700
     65 HZQ         32.0500    25.1300    20.5070 hc         1 K1N       0.053200
     66 HBA         31.2390    25.9580    21.8440 hc         1 K1N       0.053200
     67 HZR         31.3770    26.9170    18.9040 hc         1 K1N       0.072700
     68 HBB         31.9500    27.8060    20.3150 hc         1 K1N       0.072700
     69 HBC         29.6580    28.2240    21.1180 h1         1 K1N       0.073700
     70 HBG         28.8880    30.8720    17.4550 h1         1 K1N       0.066700
     71 HBK         30.7020    29.1510    13.7690 h1         1 K1N       0.066700
     72 HZS         28.8930    30.4740    12.8750 hc         1 K1N       0.039700
     73 HBN         30.2350    31.1070    11.9190 hc         1 K1N       0.039700
     74 HBO         30.5950    32.9620    13.5400 hc         1 K1N       0.044200
     75 HZT         28.8460    32.9290    13.3050 hc         1 K1N       0.044200
     76 HBP         28.4670    31.6270    15.3580 h1         1 K1N       0.034700
     77 HBQ         29.8360    34.0790    15.6260 ha         1 K1N       0.159000
     78 HBR         30.8270    33.9450    17.7320 ha         1 K1N       0.159000
     79 HBS         31.9180    31.4340    17.9000 hc         1 K1N       0.104700
     80 HBT         31.2340    32.5420    20.0370 hc         1 K1N       0.046700
     81 HZU         29.5230    32.3710    19.6290 hc         1 K1N       0.046700
     82 HBU         29.8710    30.3610    20.9280 h1         1 K1N       0.041200
     83 HZV         31.5180    30.1150    20.2820 h1         1 K1N       0.041200
     84 O1          32.8150    29.9660    12.5400 o          1 K1N      -0.723500
     85 OBI         31.0580    28.7770    16.3070 o          1 K1N      -0.568000
     86 OAV         26.9180    27.3400    20.7560 o          1 K1N      -0.568000
     87 OBM         32.9900    31.3190    14.1820 o          1 K1N      -0.723500
@<TRIPOS>BOND
     1     1     4 1   
     2     1    45 1   
     3     1    46 1   
     4     1    47 1   
     5     2     6 1   
     6     2     7 1   
     7     2    48 1   
     8     2    49 1   
     9     3     7 1   
    10     3    39 1   
    11     3    86 2   
    12     4     8 1   
    13     4    42 2   
    14     5     6 1   
    15     5    38 1   
    16     5    50 1   
    17     5    51 1   
    18     6    52 1   
    19     6    53 1   
    20     7    19 1   
    21     7    38 1   
    22     8     9 1   
    23     8    54 1   
    24     9    10 1   
    25     9    12 1   
    26     9    55 1   
    27    10    11 2   
    28    10    38 1   
    29    12    13 1   
    30    12    56 1   
    31    12    57 1   
    32    13    14 ar  
    33    13    15 ar  
    34    14    16 ar  
    35    14    44 1   
    36    15    17 ar  
    37    15    58 1   
    38    16    18 ar  
    39    16    59 1   
    40    17    18 ar  
    41    17    60 1   
    42    18    61 1   
    43    19    20 2   
    44    19    62 1   
    45    20    21 1   
    46    20    63 1   
    47    21    22 1   
    48    21    39 1   
    49    21    64 1   
    50    22    23 1   
    51    22    65 1   
    52    22    66 1   
    53    23    24 1   
    54    23    67 1   
    55    23    68 1   
    56    24    25 1   
    57    24    39 1   
    58    24    69 1   
    59    25    40 1   
    60    25    43 2   
    61    26    27 1   
    62    26    35 1   
    63    26    40 1   
    64    26    70 1   
    65    27    41 1   
    66    27    85 2   
    67    28    29 1   
    68    28    30 1   
    69    28    41 1   
    70    28    71 1   
    71    29    84 1   
    72    29    87 1   
    73    30    31 1   
    74    30    72 1   
    75    30    73 1   
    76    31    32 1   
    77    31    74 1   
    78    31    75 1   
    79    32    33 1   
    80    32    41 1   
    81    32    76 1   
    82    33    34 2   
    83    33    77 1   
    84    34    35 1   
    85    34    78 1   
    86    35    36 1   
    87    35    79 1   
    88    36    37 1   
    89    36    80 1   
    90    36    81 1   
    91    37    40 1   
    92    37    82 1   
    93    37    83 1   
@<TRIPOS>SUBSTRUCTURE
     1 K1N         1 TEMP              0 ****  ****    0 ROOT
