@<TRIPOS>MOLECULE
K1N
   87    93     1     0     0
SMALL
bcc


@<TRIPOS>ATOM
      1 CAM         23.4260    24.7360    26.5730 c3         1 K1N      -0.178100
      2 CAS         26.6980    24.2950    19.0150 c5         1 K1N      -0.077400
      3 CAU         27.5640    26.1580    20.4410 c          1 K1N       0.730500
      4 CAK         23.2670    24.6100    25.0790 c          1 K1N       0.672100
      5 CAQ         24.6970    24.1360    20.2720 c5         1 K1N       0.105000
      6 CAR         25.4770    23.4070    19.1910 c5         1 K1N      -0.094400
      7 CAT         27.0490    24.7190    20.4640 c5         1 K1N       0.077600
      8 N           24.2240    25.2180    24.3510 ns         1 K1N      -0.563900
      9 CA          24.2040    25.2960    22.9180 c3         1 K1N       0.036700
     10 C           25.6220    25.1310    22.3830 c          1 K1N       0.673100
     11 O           26.5810    25.4800    23.0560 o          1 K1N      -0.608100
     12 CB          23.6780    26.6690    22.4380 c3         1 K1N      -0.050100
     13 CG          22.2980    26.9430    22.9540 ca         1 K1N      -0.059300
     14 CD1         21.1510    26.4330    22.3510 ca         1 K1N       0.049400
     15 CD2         22.1230    27.6980    24.1120 ca         1 K1N      -0.119000
     16 CE1         19.8830    26.6610    22.8630 ca         1 K1N      -0.116000
     17 CE2         20.8650    27.9320    24.6470 ca         1 K1N      -0.130000
     18 CZ          19.7420    27.4120    24.0210 ca         1 K1N      -0.122000
     19 CAX         28.0370    23.7690    21.0840 c2         1 K1N      -0.151200
     20 CAY         29.3410    23.9990    21.0460 c2         1 K1N      -0.165200
     21 CAZ         29.8880    25.2420    20.4370 c5         1 K1N       0.144900
     22 CBA         31.0230    25.9270    21.1900 c5         1 K1N      -0.087400
     23 CBB         30.9950    27.3380    20.6110 c5         1 K1N      -0.087400
     24 CBC         29.4950    27.6130    20.3630 c5         1 K1N       0.031700
     25 CBD         29.2870    28.2920    19.0160 c          1 K1N       0.681100
     26 CBG         29.5200    30.3040    17.7010 c5         1 K1N       0.023700
     27 CBH         30.5230    29.8050    16.6810 c          1 K1N       0.724500
     28 CBK         31.2750    29.9770    14.3820 c5         1 K1N      -0.035300
     29 CBL         32.6020    30.7750    14.4570 c          1 K1N       0.932600
     30 CBN         30.4720    30.3280    13.1290 c5         1 K1N      -0.072400
     31 CBO         29.6730    31.5400    13.5760 c5         1 K1N      -0.084400
     32 CBP         29.2730    31.2100    15.0210 c5         1 K1N       0.157900
     33 CBQ         29.0590    32.4770    15.8090 c2         1 K1N      -0.157200
     34 CBR         29.3220    32.7320    17.0870 c2         1 K1N      -0.150200
     35 CBS         29.8790    31.7500    18.0640 c5         1 K1N      -0.040500
     36 CBT         29.3800    31.8670    19.5000 c5         1 K1N      -0.093400
     37 CBU         29.7660    30.5170    20.0890 c5         1 K1N       0.109000
     38 NAP         25.7530    24.6670    21.1300 n          1 K1N      -0.459800
     39 NAW         28.8910    26.3000    20.3820 n          1 K1N      -0.445800
     40 NBF         29.5680    29.6050    18.9640 n          1 K1N      -0.459800
     41 NBJ         30.3430    30.3010    15.4510 n          1 K1N      -0.434800
     42 OAL         22.3320    24.0020    24.5790 o          1 K1N      -0.611100
     43 OBE         28.9480    27.6580    18.0290 o          1 K1N      -0.590100
     44 CL1         21.2850    25.4680    20.9110 cl         1 K1N      -0.124400
     45 HAM         22.5920    25.3140    26.9710 hc         1 K1N       0.057700
     46 HZL         23.3830    23.7470    27.0290 hc         1 K1N       0.057700
     47 HZM         24.3530    25.2190    26.8760 hc         1 K1N       0.057700
     48 HAS         27.5380    23.8050    18.5250 hc         1 K1N       0.075700
     49 HZP         26.4270    25.1740    18.4250 hc         1 K1N       0.075700
     50 HZN         24.0970    24.9410    19.8390 h1         1 K1N       0.053700
     51 HAQ         24.0300    23.4730    20.8220 h1         1 K1N       0.053700
     52 HZO         24.9000    23.2970    18.2740 hc         1 K1N       0.053700
     53 HAR         25.7640    22.4110    19.5320 hc         1 K1N       0.053700
     54 H           24.9620    25.7150    24.8260 hn         1 K1N       0.330500
     55 HA          23.5490    24.5090    22.5500 h1         1 K1N       0.096700
     56 HB2         24.3570    27.4430    22.8020 hc         1 K1N       0.076700
     57 HB1         23.7070    26.7150    21.3480 hc         1 K1N       0.076700
     58 HD2         22.9980    28.1100    24.5990 ha         1 K1N       0.132000
     59 HE1         19.0140    26.2520    22.3660 ha         1 K1N       0.143000
     60 HE2         20.7640    28.5210    25.5490 ha         1 K1N       0.129000
     61 HZ          18.7550    27.5890    24.4250 ha         1 K1N       0.130000
     62 HAX         27.6430    22.8550    21.5120 ha         1 K1N       0.133000
     63 HAY         30.0520    23.2770    21.4270 ha         1 K1N       0.134000
     64 HAZ         30.2370    25.0160    19.4190 h1         1 K1N       0.077700
     65 HZQ         31.9800    25.4280    21.0410 hc         1 K1N       0.053200
     66 HBA         30.8050    25.9370    22.2610 hc         1 K1N       0.053200
     67 HZR         31.5530    27.3680    19.6720 hc         1 K1N       0.072700
     68 HBB         31.4340    28.0820    21.2740 hc         1 K1N       0.072700
     69 HBC         29.0740    28.2110    21.1740 h1         1 K1N       0.073700
     70 HBG         28.5040    30.2660    17.2890 h1         1 K1N       0.066700
     71 HBK         31.5100    28.9110    14.4090 h1         1 K1N       0.066700
     72 HZS         29.8020    29.5060    12.8660 hc         1 K1N       0.039700
     73 HBN         31.1100    30.5230    12.2690 hc         1 K1N       0.039700
     74 HBO         30.2990    32.4350    13.5620 hc         1 K1N       0.044200
     75 HZT         28.7970    31.7430    12.9610 hc         1 K1N       0.044200
     76 HBP         28.3230    30.6580    14.9990 h1         1 K1N       0.034700
     77 HBQ         28.6120    33.2720    15.2200 ha         1 K1N       0.109000
     78 HBR         29.1220    33.7300    17.4630 ha         1 K1N       0.109000
     79 HBS         30.9730    31.8460    18.0880 hc         1 K1N       0.104700
     80 HBT         29.8280    32.7000    20.0400 hc         1 K1N       0.046700
     81 HZU         28.2940    31.9910    19.5200 hc         1 K1N       0.046700
     82 HBU         29.1410    30.2470    20.9390 h1         1 K1N       0.041200
     83 HZV         30.8080    30.5150    20.4210 h1         1 K1N       0.041200
     84 O1          33.4630    30.4060    13.6340 o          1 K1N      -0.828800
     85 OBI         31.4510    29.0680    16.9830 o          1 K1N      -0.643500
     86 OAV         26.7970    27.1090    20.4270 o          1 K1N      -0.643500
     87 OBM         32.6840    31.6950    15.2880 o          1 K1N      -0.828800
@<TRIPOS>BOND
     1     1     4 1   
     2     1    45 1   
     3     1    46 1   
     4     1    47 1   
     5     2     6 1   
     6     2     7 1   
     7     2    48 1   
     8     2    49 1   
     9     3     7 1   
    10     3    39 1   
    11     3    86 2   
    12     4     8 1   
    13     4    42 2   
    14     5     6 1   
    15     5    38 1   
    16     5    50 1   
    17     5    51 1   
    18     6    52 1   
    19     6    53 1   
    20     7    19 1   
    21     7    38 1   
    22     8     9 1   
    23     8    54 1   
    24     9    10 1   
    25     9    12 1   
    26     9    55 1   
    27    10    11 2   
    28    10    38 1   
    29    12    13 1   
    30    12    56 1   
    31    12    57 1   
    32    13    14 ar  
    33    13    15 ar  
    34    14    16 ar  
    35    14    44 1   
    36    15    17 ar  
    37    15    58 1   
    38    16    18 ar  
    39    16    59 1   
    40    17    18 ar  
    41    17    60 1   
    42    18    61 1   
    43    19    20 2   
    44    19    62 1   
    45    20    21 1   
    46    20    63 1   
    47    21    22 1   
    48    21    39 1   
    49    21    64 1   
    50    22    23 1   
    51    22    65 1   
    52    22    66 1   
    53    23    24 1   
    54    23    67 1   
    55    23    68 1   
    56    24    25 1   
    57    24    39 1   
    58    24    69 1   
    59    25    40 1   
    60    25    43 2   
    61    26    27 1   
    62    26    35 1   
    63    26    40 1   
    64    26    70 1   
    65    27    41 1   
    66    27    85 2   
    67    28    29 1   
    68    28    30 1   
    69    28    41 1   
    70    28    71 1   
    71    29    84 1   
    72    29    87 1   
    73    30    31 1   
    74    30    72 1   
    75    30    73 1   
    76    31    32 1   
    77    31    74 1   
    78    31    75 1   
    79    32    33 1   
    80    32    41 1   
    81    32    76 1   
    82    33    34 2   
    83    33    77 1   
    84    34    35 1   
    85    34    78 1   
    86    35    36 1   
    87    35    79 1   
    88    36    37 1   
    89    36    80 1   
    90    36    81 1   
    91    37    40 1   
    92    37    82 1   
    93    37    83 1   
@<TRIPOS>SUBSTRUCTURE
     1 K1N         1 TEMP              0 ****  ****    0 ROOT
