@<TRIPOS>MOLECULE
K1O
   36    39     1     0     0
SMALL
No Charge or Current Charge


@<TRIPOS>ATOM
      1 C10         15.3480     5.1760    25.1500 ca         1 K1O      -0.044000
      2 C17         14.3000     6.5420    26.8670 ca         1 K1O      -0.082000
      3 C20         16.9050     1.9740    25.4110 ca         1 K1O       0.131500
      4 C22         16.1220     0.5230    26.9880 ca         1 K1O       0.285000
      5 C01         15.3330    -2.5470    24.1050 c3         1 K1O       0.222100
      6 C03         16.1460    -0.2120    24.8170 ca         1 K1O       0.457900
      7 C04         16.6810     1.0360    24.4340 ca         1 K1O      -0.100600
      8 C06         17.4800     2.7480    23.3870 cc         1 K1O       0.409700
      9 C08         17.7450     4.3190    25.4200 c3         1 K1O       0.134900
     10 C09         16.5290     5.0990    25.9190 ca         1 K1O      -0.126300
     11 C11         14.2230     5.8930    25.6140 ca         1 K1O      -0.149500
     12 C18         15.4750     6.4730    27.6320 ca         1 K1O      -0.113000
     13 C19         16.5860     5.7570    27.1610 ca         1 K1O      -0.056000
     14 N02         15.8950    -1.2030    23.8740 nu         1 K1O      -0.907100
     15 N05         17.0350     1.4970    23.1570 nd         1 K1O      -0.547100
     16 N07         17.4100     3.0530    24.7470 na         1 K1O      -0.283300
     17 N21         16.6340     1.7440    26.7100 nb         1 K1O      -0.216000
     18 N24         15.8630    -0.4720    26.1080 nb         1 K1O      -0.283000
     19 C1          13.0000     5.9560    24.7990 cc         1 K1O       0.467000
     20 N4          11.8450     6.6070    25.1230 na         1 K1O      -0.221700
     21 N3          10.9200     6.4560    24.1420 nc         1 K1O      -0.196800
     22 N2          11.5190     5.7230    23.2420 nd         1 K1O      -0.038000
     23 N1          12.8010     5.4000    23.6200 nd         1 K1O      -0.393000
     24 H1          15.3050     4.6740    24.1850 ha         1 K1O       0.138000
     25 H2          13.4550     7.1040    27.2580 ha         1 K1O       0.109000
     26 H3          15.2550    -3.1000    23.1600 h1         1 K1O       0.048700
     27 H4          15.9730    -3.1200    24.7890 h1         1 K1O       0.048700
     28 H5          14.3300    -2.4750    24.5470 h1         1 K1O       0.048700
     29 H6          17.8430     3.4520    22.6470 h5         1 K1O       0.071800
     30 H7          18.4110     4.0940    26.2640 h1         1 K1O       0.079700
     31 H8          18.3100     4.9510    24.7220 h1         1 K1O       0.079700
     32 H9          15.5250     6.9780    28.5950 ha         1 K1O       0.126000
     33 H10         17.4890     5.7120    27.7670 ha         1 K1O       0.142000
     34 H11         16.1320    -0.9330    22.9160 hn         1 K1O       0.518000
     35 H12         11.6610     7.1380    25.9640 hn         1 K1O       0.386000
     36 Cl23        15.7550     0.1930    28.6730 cl         1 K1O      -0.148000
@<TRIPOS>BOND
     1     1    10 ar  
     2     1    11 ar  
     3     1    24 1   
     4     2    11 ar  
     5     2    12 ar  
     6     2    25 1   
     7     3     7 ar  
     8     3    16 1   
     9     3    17 ar  
    10     4    17 ar  
    11     4    18 ar  
    12     4    36 1   
    13     5    14 1   
    14     5    26 1   
    15     5    27 1   
    16     5    28 1   
    17     6     7 ar  
    18     6    14 1   
    19     6    18 ar  
    20     7    15 1   
    21     8    15 2   
    22     8    16 1   
    23     8    29 1   
    24     9    10 1   
    25     9    16 1   
    26     9    30 1   
    27     9    31 1   
    28    10    13 ar  
    29    11    19 1   
    30    12    13 ar  
    31    12    32 1   
    32    13    33 1   
    33    14    34 1   
    34    19    20 1   
    35    19    23 2   
    36    20    21 1   
    37    20    35 1   
    38    21    22 2   
    39    22    23 1   
@<TRIPOS>SUBSTRUCTURE
     1 K1O         1 TEMP              0 ****  ****    0 ROOT
