@<TRIPOS>MOLECULE
K1O
   36    39     1     0     0
SMALL
abcg2


@<TRIPOS>ATOM
      1 C10         15.2060     5.8040    24.9080 ca         1 K1O      -0.044000
      2 C17         13.7120     6.1190    26.7790 ca         1 K1O      -0.082000
      3 C20         16.9680     1.7070    25.3100 ca         1 K1O       0.131500
      4 C22         17.4160     0.2990    26.9300 ca         1 K1O       0.285000
      5 C01         16.1620    -3.0500    24.8550 c3         1 K1O       0.222100
      6 C03         16.5370    -0.6220    25.0200 ca         1 K1O       0.457900
      7 C04         16.5020     0.6860    24.4870 ca         1 K1O      -0.100600
      8 C06         16.3140     2.4870    23.3660 cc         1 K1O       0.409700
      9 C08         17.1510     4.2180    25.0220 c3         1 K1O       0.134900
     10 C09         15.9550     4.8960    25.6460 ca         1 K1O      -0.126300
     11 C11         14.0830     6.4210    25.4670 ca         1 K1O      -0.149500
     12 C18         14.4610     5.2120    27.5170 ca         1 K1O      -0.113000
     13 C19         15.5760     4.6020    26.9570 ca         1 K1O      -0.056000
     14 N02         16.1270    -1.6940    24.3370 nu         1 K1O      -0.907100
     15 N05         16.0960     1.1960    23.2690 nd         1 K1O      -0.547100
     16 N07         16.8470     2.8580    24.5770 na         1 K1O      -0.283300
     17 N21         17.4420     1.5620    26.5600 nb         1 K1O      -0.216000
     18 N24         17.0110    -0.7780    26.2760 nb         1 K1O      -0.283000
     19 C1          13.3230     7.3730    24.6640 cc         1 K1O       0.467000
     20 N4          12.1350     7.9170    24.9810 na         1 K1O      -0.221700
     21 N3          11.7500     8.7480    24.0040 nc         1 K1O      -0.196800
     22 N2          12.6820     8.7110    23.1140 nd         1 K1O      -0.038000
     23 N1          13.6730     7.8710    23.4850 nd         1 K1O      -0.393000
     24 H1          15.4910     6.0370    23.8910 ha         1 K1O       0.138000
     25 H2          12.8540     6.5940    27.2370 ha         1 K1O       0.109000
     26 H3          15.7710    -3.7140    24.0880 h1         1 K1O       0.048700
     27 H4          17.1830    -3.3510    25.1000 h1         1 K1O       0.048700
     28 H5          15.5500    -3.1440    25.7540 h1         1 K1O       0.048700
     29 H6          16.1160     3.2190    22.5980 h5         1 K1O       0.071800
     30 H7          17.9710     4.1460    25.7350 h1         1 K1O       0.079700
     31 H8          17.4990     4.7780    24.1550 h1         1 K1O       0.079700
     32 H9          14.1750     4.9850    28.5360 ha         1 K1O       0.126000
     33 H10         16.1570     3.8970    27.5370 ha         1 K1O       0.142000
     34 H11         15.7790    -1.5420    23.4040 hn         1 K1O       0.518000
     35 H12         11.5460     7.7730    25.7900 hn         1 K1O       0.386000
     36 CL23        18.0150    -0.0130    28.5570 cl         1 K1O      -0.148000
@<TRIPOS>BOND
     1     1    10 ar  
     2     1    11 ar  
     3     1    24 1   
     4     2    11 ar  
     5     2    12 ar  
     6     2    25 1   
     7     3     7 ar  
     8     3    16 1   
     9     3    17 ar  
    10     4    17 ar  
    11     4    18 ar  
    12     4    36 1   
    13     5    14 1   
    14     5    26 1   
    15     5    27 1   
    16     5    28 1   
    17     6     7 ar  
    18     6    14 1   
    19     6    18 ar  
    20     7    15 1   
    21     8    15 2   
    22     8    16 1   
    23     8    29 1   
    24     9    10 1   
    25     9    16 1   
    26     9    30 1   
    27     9    31 1   
    28    10    13 ar  
    29    11    19 1   
    30    12    13 ar  
    31    12    32 1   
    32    13    33 1   
    33    14    34 1   
    34    19    20 1   
    35    19    23 2   
    36    20    21 1   
    37    20    35 1   
    38    21    22 2   
    39    22    23 1   
@<TRIPOS>SUBSTRUCTURE
     1 K1O         1 TEMP              0 ****  ****    0 ROOT
