@<TRIPOS>MOLECULE
K1P
   27    28     1     0     0
SMALL
bcc


@<TRIPOS>ATOM
      1 N1           1.4800     0.9350     0.0670 nc         1 K1P      -0.785000
      2 N3          -2.9400     1.0560    -0.5530 n7         1 K1P      -0.802200
      3 C4          -2.2600    -1.3330    -0.6070 c3         1 K1P      -0.100400
      4 C5          -3.3890    -0.3190    -0.7030 c3         1 K1P       0.164800
      5 C6          -2.6090     1.4040     0.8170 c3         1 K1P       0.141800
      6 C7          -1.1230     1.2510     1.1200 c3         1 K1P       0.231800
      7 N            2.7590    -0.7080    -0.9180 nd         1 K1P      -0.534100
      8 C            3.7440     1.5030    -0.6970 c3         1 K1P      -0.115400
      9 C1           2.6320     0.5260    -0.5220 cc         1 K1P       0.631300
     10 C2           0.6380    -0.0680     0.1350 cd         1 K1P       0.724300
     11 C3          -1.4230    -1.2060     0.6630 c3         1 K1P       0.225800
     12 N2          -0.5820    -0.0220     0.6640 nh         1 K1P      -0.749300
     13 S            1.3360    -1.5120    -0.5640 ss         1 K1P      -0.057300
     14 H3          -2.6920    -2.3360    -0.6350 hc         1 K1P       0.059200
     15 H4          -1.6030    -1.2490    -1.4780 hc         1 K1P       0.059200
     16 H5          -4.1550    -0.5770     0.0470 h1         1 K1P       0.029700
     17 H6          -3.8640    -0.4170    -1.6810 h1         1 K1P       0.029700
     18 H7          -2.8520     2.4530     0.9930 h1         1 K1P       0.035200
     19 H8          -3.2070     0.8320     1.5400 h1         1 K1P       0.035200
     20 H9          -0.5720     2.0440     0.6180 h1         1 K1P       0.065700
     21 H10         -0.9600     1.3680     2.1960 h1         1 K1P       0.065700
     22 H11          4.0750     1.8790     0.2720 hc         1 K1P       0.058033
     23 H12          4.5900     1.0480    -1.2040 hc         1 K1P       0.058033
     24 H13          3.4060     2.3620    -1.2780 hc         1 K1P       0.058033
     25 H14         -2.0590    -1.1800     1.5510 h1         1 K1P       0.056200
     26 H15         -0.7920    -2.0890     0.7920 h1         1 K1P       0.056200
     27 H1          -3.6760     1.6670    -0.8760 hn         1 K1P       0.360800
@<TRIPOS>BOND
     1     1     9 1   
     2     1    10 2   
     3     2     4 1   
     4     2     5 1   
     5     2    27 1   
     6     3     4 1   
     7     3    11 1   
     8     3    14 1   
     9     3    15 1   
    10     4    16 1   
    11     4    17 1   
    12     5     6 1   
    13     5    18 1   
    14     5    19 1   
    15     6    12 1   
    16     6    20 1   
    17     6    21 1   
    18     7     9 2   
    19     7    13 1   
    20     8     9 1   
    21     8    22 1   
    22     8    23 1   
    23     8    24 1   
    24    10    12 1   
    25    10    13 1   
    26    11    12 1   
    27    11    25 1   
    28    11    26 1   
@<TRIPOS>SUBSTRUCTURE
     1 K1P         1 TEMP              0 ****  ****    0 ROOT
