@<TRIPOS>MOLECULE
K1P
   27    28     1     0     0
SMALL
No Charge or Current Charge


@<TRIPOS>ATOM
      1 N1           1.6280     0.9260     0.0830 nc         1 K1P      -0.785000
      2 N3          -3.3890     1.0250    -0.4050 n7         1 K1P      -0.857400
      3 C4          -2.3820    -1.2690    -0.6870 c3         1 K1P      -0.100400
      4 C5          -3.6610    -0.4230    -0.5170 c3         1 K1P       0.164800
      5 C6          -2.6630     1.4590     0.8220 c3         1 K1P       0.141800
      6 C7          -1.1090     1.3430     0.7160 c3         1 K1P       0.231800
      7 N            3.0100    -0.7670    -0.8140 nd         1 K1P      -0.534100
      8 C            3.9580     1.4720    -0.4390 c3         1 K1P      -0.115400
      9 C1           2.8320     0.4840    -0.3980 cc         1 K1P       0.631300
     10 C2           0.8180    -0.0990     0.0230 cd         1 K1P       0.724300
     11 C3          -1.3980    -1.1800     0.4940 c3         1 K1P       0.225800
     12 N2          -0.5130     0.0040     0.4310 nh         1 K1P      -0.749300
     13 S            1.5520    -1.5600    -0.6210 ss         1 K1P      -0.057300
     14 H3          -2.6900    -2.3160    -0.7950 hc         1 K1P       0.059200
     15 H4          -1.8730    -0.9980    -1.6190 hc         1 K1P       0.059200
     16 H5          -4.2090    -0.7760     0.3680 h1         1 K1P       0.029700
     17 H6          -4.3060    -0.6070    -1.3870 h1         1 K1P       0.029700
     18 H7          -2.8860     2.5180     1.0110 h1         1 K1P       0.035200
     19 H8          -3.0150     0.9050     1.7020 h1         1 K1P       0.035200
     20 H9          -0.7950     2.0440    -0.0690 h1         1 K1P       0.065700
     21 H10         -0.6860     1.7230     1.6560 h1         1 K1P       0.065700
     22 H11          4.1760     1.8500     0.5660 hc         1 K1P       0.058033
     23 H12          4.8730     1.0180    -0.8360 hc         1 K1P       0.058033
     24 H13          3.6990     2.3240    -1.0770 hc         1 K1P       0.058033
     25 H14         -1.9630    -1.1810     1.4360 h1         1 K1P       0.056200
     26 H15         -0.8020    -2.1010     0.5120 h1         1 K1P       0.056200
     27 H1          -4.3040     1.4940    -0.3970 hn         1 K1P       0.416000
@<TRIPOS>BOND
     1     1     9 1   
     2     1    10 2   
     3     2     4 1   
     4     2     5 1   
     5     2    27 1   
     6     3     4 1   
     7     3    11 1   
     8     3    14 1   
     9     3    15 1   
    10     4    16 1   
    11     4    17 1   
    12     5     6 1   
    13     5    18 1   
    14     5    19 1   
    15     6    12 1   
    16     6    20 1   
    17     6    21 1   
    18     7     9 2   
    19     7    13 1   
    20     8     9 1   
    21     8    22 1   
    22     8    23 1   
    23     8    24 1   
    24    10    12 1   
    25    10    13 1   
    26    11    12 1   
    27    11    25 1   
    28    11    26 1   
@<TRIPOS>SUBSTRUCTURE
     1 K1P         1 TEMP              0 ****  ****    0 ROOT
