@<TRIPOS>MOLECULE
K1Q
   66    69     1     0     0
SMALL
No Charge or Current Charge


@<TRIPOS>ATOM
      1 C6           2.8290     2.3150     0.1180 ca         1 K1Q      -0.041000
      2 C5           2.8450     0.9200    -0.1130 ca         1 K1Q      -0.159900
      3 C8           4.1330     0.1420    -0.2070 ce         1 K1Q       0.395900
      4 C4           1.6040     0.2460    -0.2090 ca         1 K1Q      -0.009000
      5 N3          -4.2630    -0.1860    -0.2680 ns         1 K1Q      -0.502900
      6 C2           0.3840     2.3350     0.1160 ca         1 K1Q       0.180100
      7 N1           4.1060    -1.1580    -0.1510 n2         1 K1Q      -0.444300
      8 C1          -0.9150     4.4180     0.4410 c3         1 K1Q       0.145900
      9 C10          4.3600    -3.3080     1.8790 c3         1 K1Q      -0.102100
     10 C11          4.7510    -4.3330    -0.4160 c3         1 K1Q      -0.102100
     11 C12          6.4860    -1.4610    -0.6100 c          1 K1Q       0.558000
     12 C13          6.4840    -0.0100    -1.1560 c6         1 K1Q      -0.142700
     13 C14          7.8800     0.6740    -1.2400 c6         1 K1Q      -0.029200
     14 C15          8.3510     1.2420     0.0880 c2         1 K1Q      -0.209200
     15 C16          7.5310     1.4660     1.1250 c2         1 K1Q      -0.225200
     16 C17          6.0400     1.1690     1.0970 c6         1 K1Q      -0.038200
     17 C18          5.4870     0.8670    -0.3320 c6         1 K1Q      -0.127000
     18 C20         -1.8950    -0.3930    -0.3050 cg         1 K1Q      -0.176200
     19 C21         -3.1910    -1.0330    -0.4020 c          1 K1Q       0.641300
     20 C22         -5.6620    -0.6090    -0.3300 c3         1 K1Q       0.109000
     21 C23         -6.6310     0.5790    -0.1740 c3         1 K1Q      -0.042100
     22 C24         -8.0910     0.1410    -0.2480 ca         1 K1Q      -0.122300
     23 C25         -8.7360    -0.4380     0.8670 ca         1 K1Q       0.175000
     24 C26        -10.0790    -0.8410     0.7860 ca         1 K1Q      -0.149000
     25 C27        -10.7940    -0.6700    -0.4110 ca         1 K1Q      -0.082000
     26 C28        -10.1600    -0.0960    -1.5260 ca         1 K1Q      -0.124000
     27 C29         -8.8150     0.3080    -1.4470 ca         1 K1Q      -0.081000
     28 C3           0.3840     0.9400    -0.1010 ca         1 K1Q      -0.035000
     29 C7           1.6150     3.0140     0.2260 ca         1 K1Q      -0.214000
     30 F1          -8.0650    -0.6140     2.0280 f          1 K1Q      -0.180000
     31 N2           5.2680    -1.9180    -0.0180 n          1 K1Q      -0.177800
     32 O1          -0.8280     2.9990     0.2200 os         1 K1Q      -0.329100
     33 O2           7.4530    -2.1990    -0.7660 o          1 K1Q      -0.531000
     34 O3          -3.3090    -2.2360    -0.5880 o          1 K1Q      -0.586100
     35 H1           3.7510     2.8790     0.2200 ha         1 K1Q       0.116000
     36 H2           1.5770    -0.8300    -0.3760 ha         1 K1Q       0.148000
     37 H3          -4.0480     0.7920    -0.1160 hn         1 K1Q       0.322500
     38 H4          -0.4350     4.6950     1.3890 h1         1 K1Q       0.045700
     39 H5          -0.4330     4.9710    -0.3750 h1         1 K1Q       0.045700
     40 H6          -1.9650     4.7310     0.4890 h1         1 K1Q       0.045700
     41 H7           3.3050    -3.1130     1.6500 hc         1 K1Q       0.044033
     42 H8           4.4290    -4.2890     2.3620 hc         1 K1Q       0.044033
     43 H9           4.7030    -2.5520     2.5950 hc         1 K1Q       0.044033
     44 H10          5.4020    -4.3420    -1.2980 hc         1 K1Q       0.044033
     45 H11          4.7720    -5.3330     0.0320 hc         1 K1Q       0.044033
     46 H12          3.7270    -4.1230    -0.7470 hc         1 K1Q       0.044033
     47 H13          6.0670    -0.0980    -2.1690 hc         1 K1Q       0.078700
     48 H14          8.6270    -0.0300    -1.6330 hc         1 K1Q       0.063200
     49 H15          7.8370     1.4950    -1.9690 hc         1 K1Q       0.063200
     50 H16          9.4170     1.4720     0.1630 ha         1 K1Q       0.177000
     51 H17          7.9210     1.8800     2.0580 ha         1 K1Q       0.176000
     52 H18          5.8520     0.3140     1.7630 hc         1 K1Q       0.057200
     53 H19          5.4930     2.0130     1.5370 hc         1 K1Q       0.057200
     54 H20          5.3570     1.8140    -0.8720 hc         1 K1Q       0.070700
     55 H21         -5.8420    -1.1010    -1.2960 h1         1 K1Q       0.058700
     56 H22         -5.8470    -1.3410     0.4670 h1         1 K1Q       0.058700
     57 H23         -6.4350     1.0800     0.7820 hc         1 K1Q       0.056200
     58 H24         -6.4150     1.3180    -0.9550 hc         1 K1Q       0.056200
     59 H25        -10.5620    -1.2850     1.6520 ha         1 K1Q       0.133000
     60 H26        -11.8340    -0.9820    -0.4760 ha         1 K1Q       0.119000
     61 H27        -10.7110     0.0360    -2.4550 ha         1 K1Q       0.120000
     62 H28         -8.3370     0.7480    -2.3190 ha         1 K1Q       0.116000
     63 H29          1.6540     4.0850     0.4000 ha         1 K1Q       0.122000
     64 H30          6.2470    -3.5390     0.9070 h1         1 K1Q       0.077700
     65 C19         -0.8390     0.2130    -0.2120 ch         1 K1Q      -0.027000
     66 C9           5.2280    -3.2700     0.5980 c3         1 K1Q       0.133700
@<TRIPOS>BOND
     1     1     2 ar  
     2     1    29 ar  
     3     1    35 1   
     4     2     3 1   
     5     2     4 ar  
     6     3     7 2   
     7     3    17 1   
     8     4    28 ar  
     9     4    36 1   
    10     5    19 1   
    11     5    20 1   
    12     5    37 1   
    13     6    28 ar  
    14     6    29 ar  
    15     6    32 1   
    16     7    31 1   
    17     8    32 1   
    18     8    38 1   
    19     8    39 1   
    20     8    40 1   
    21     9    41 1   
    22     9    42 1   
    23     9    43 1   
    24     9    66 1   
    25    10    44 1   
    26    10    45 1   
    27    10    46 1   
    28    10    66 1   
    29    11    12 1   
    30    11    31 1   
    31    11    33 2   
    32    12    13 1   
    33    12    17 1   
    34    12    47 1   
    35    13    14 1   
    36    13    48 1   
    37    13    49 1   
    38    14    15 2   
    39    14    50 1   
    40    15    16 1   
    41    15    51 1   
    42    16    17 1   
    43    16    52 1   
    44    16    53 1   
    45    17    54 1   
    46    18    19 1   
    47    18    65 3   
    48    19    34 2   
    49    20    21 1   
    50    20    55 1   
    51    20    56 1   
    52    21    22 1   
    53    21    57 1   
    54    21    58 1   
    55    22    23 ar  
    56    22    27 ar  
    57    23    24 ar  
    58    23    30 1   
    59    24    25 ar  
    60    24    59 1   
    61    25    26 ar  
    62    25    60 1   
    63    26    27 ar  
    64    26    61 1   
    65    27    62 1   
    66    28    65 1   
    67    29    63 1   
    68    31    66 1   
    69    64    66 1   
@<TRIPOS>SUBSTRUCTURE
     1 K1Q         1 TEMP              0 ****  ****    0 ROOT
