@<TRIPOS>MOLECULE
K1Q
   66    69     1     0     0
SMALL
bcc


@<TRIPOS>ATOM
      1 C6           2.9240     2.4040     0.1110 ca         1 K1Q      -0.059000
      2 C5           2.8930     1.0150    -0.0040 ca         1 K1Q      -0.159900
      3 C8           4.1280     0.2190    -0.0730 ce         1 K1Q       0.395900
      4 C4           1.6450     0.3940    -0.0250 ca         1 K1Q      -0.027000
      5 N3          -4.1950    -0.0470    -0.0860 ns         1 K1Q      -0.569900
      6 C2           0.5230     2.5330     0.1890 ca         1 K1Q       0.180100
      7 N1           4.0150    -1.0490     0.0160 n2         1 K1Q      -0.444300
      8 C1          -0.6610     4.5710     0.4220 c3         1 K1Q       0.122700
      9 C10          4.1810    -3.2480     1.7740 c3         1 K1Q      -0.102100
     10 C11          4.0980    -3.9620    -0.6460 c3         1 K1Q      -0.102100
     11 C12          6.3200    -1.4490    -0.5450 c          1 K1Q       0.700500
     12 C13          6.3240    -0.0410    -1.0980 c6         1 K1Q      -0.142700
     13 C14          7.7240     0.5200    -1.2890 c6         1 K1Q      -0.029200
     14 C15          8.3120     1.0250    -0.0090 c2         1 K1Q      -0.159200
     15 C16          7.6010     1.2510     1.0910 c2         1 K1Q      -0.175200
     16 C17          6.1210     1.0430     1.1820 c6         1 K1Q      -0.038200
     17 C18          5.4780     0.8570    -0.2020 c6         1 K1Q      -0.127000
     18 C20         -1.8510    -0.0930    -0.0150 cg         1 K1Q      -0.176200
     19 C21         -3.1030    -0.8210    -0.0790 c          1 K1Q       0.708300
     20 C22         -5.5310    -0.5990    -0.1720 c3         1 K1Q       0.109000
     21 C23         -6.5630     0.5240    -0.1560 c3         1 K1Q      -0.042100
     22 C24         -7.9560    -0.0160    -0.3070 ca         1 K1Q      -0.122300
     23 C25         -8.6740    -0.5100     0.7720 ca         1 K1Q       0.139900
     24 C26         -9.9480    -1.0320     0.6580 ca         1 K1Q      -0.167000
     25 C27        -10.5410    -1.0720    -0.5970 ca         1 K1Q      -0.100000
     26 C28         -9.8550    -0.5920    -1.7040 ca         1 K1Q      -0.142000
     27 C29         -8.5780    -0.0710    -1.5520 ca         1 K1Q      -0.099000
     28 C3           0.4700     1.1290     0.0640 ca         1 K1Q      -0.035000
     29 C7           1.7640     3.1570     0.2110 ca         1 K1Q      -0.232000
     30 F1          -8.1040    -0.4790     1.9910 f          1 K1Q      -0.144900
     31 N2           5.1300    -1.8280     0.0080 n          1 K1Q      -0.244800
     32 O1          -0.6490     3.1600     0.2770 os         1 K1Q      -0.305900
     33 O2           7.2700    -2.2080    -0.6230 o          1 K1Q      -0.606500
     34 O3          -3.1290    -2.0430    -0.1230 o          1 K1Q      -0.586100
     35 H1           3.8660     2.9360     0.1320 ha         1 K1Q       0.134000
     36 H2           1.5820    -0.6810    -0.1160 ha         1 K1Q       0.166000
     37 H3          -4.0810     0.9540    -0.0620 hn         1 K1Q       0.322500
     38 H4          -0.1420     4.8860     1.3300 h1         1 K1Q       0.045700
     39 H5          -0.2110     5.0690    -0.4400 h1         1 K1Q       0.045700
     40 H6          -1.7050     4.8610     0.4930 h1         1 K1Q       0.045700
     41 H7           3.1660    -2.8580     1.7100 hc         1 K1Q       0.044033
     42 H8           4.1240    -4.2790     2.1240 hc         1 K1Q       0.044033
     43 H9           4.7270    -2.6710     2.5210 hc         1 K1Q       0.044033
     44 H10          4.6440    -3.9910    -1.5900 hc         1 K1Q       0.044033
     45 H11          3.9230    -4.9910    -0.3290 hc         1 K1Q       0.044033
     46 H12          3.1290    -3.4950    -0.8230 hc         1 K1Q       0.044033
     47 H13          5.8320    -0.1100    -2.0780 hc         1 K1Q       0.078700
     48 H14          8.3770    -0.2350    -1.7300 hc         1 K1Q       0.063200
     49 H15          7.6830     1.3340    -2.0200 hc         1 K1Q       0.063200
     50 H16          9.3800     1.2150     0.0000 ha         1 K1Q       0.127000
     51 H17          8.0970     1.6050     1.9880 ha         1 K1Q       0.126000
     52 H18          5.9150     0.1830     1.8300 hc         1 K1Q       0.057200
     53 H19          5.6580     1.8970     1.6840 hc         1 K1Q       0.057200
     54 H20          5.4020     1.8320    -0.6860 hc         1 K1Q       0.070700
     55 H21         -5.6350    -1.1820    -1.0910 h1         1 K1Q       0.058700
     56 H22         -5.7020    -1.2820     0.6630 h1         1 K1Q       0.058700
     57 H23         -6.4670     1.1010     0.7670 hc         1 K1Q       0.056200
     58 H24         -6.3620     1.2110    -0.9810 hc         1 K1Q       0.056200
     59 H25        -10.4650    -1.3980     1.5350 ha         1 K1Q       0.151000
     60 H26        -11.5370    -1.4800    -0.7040 ha         1 K1Q       0.137000
     61 H27        -10.3130    -0.6230    -2.6830 ha         1 K1Q       0.138000
     62 H28         -8.0470     0.3080    -2.4170 ha         1 K1Q       0.134000
     63 H29          1.8490     4.2310     0.3030 ha         1 K1Q       0.140000
     64 H30          5.8600    -3.6710     0.5320 h1         1 K1Q       0.077700
     65 C19         -0.7880     0.4730     0.0250 ch         1 K1Q      -0.027000
     66 C9           4.8800    -3.2120     0.4230 c3         1 K1Q       0.133700
@<TRIPOS>BOND
     1     1     2 ar  
     2     1    29 ar  
     3     1    35 1   
     4     2     3 1   
     5     2     4 ar  
     6     3     7 2   
     7     3    17 1   
     8     4    28 ar  
     9     4    36 1   
    10     5    19 1   
    11     5    20 1   
    12     5    37 1   
    13     6    28 ar  
    14     6    29 ar  
    15     6    32 1   
    16     7    31 1   
    17     8    32 1   
    18     8    38 1   
    19     8    39 1   
    20     8    40 1   
    21     9    41 1   
    22     9    42 1   
    23     9    43 1   
    24     9    66 1   
    25    10    44 1   
    26    10    45 1   
    27    10    46 1   
    28    10    66 1   
    29    11    12 1   
    30    11    31 1   
    31    11    33 2   
    32    12    13 1   
    33    12    17 1   
    34    12    47 1   
    35    13    14 1   
    36    13    48 1   
    37    13    49 1   
    38    14    15 2   
    39    14    50 1   
    40    15    16 1   
    41    15    51 1   
    42    16    17 1   
    43    16    52 1   
    44    16    53 1   
    45    17    54 1   
    46    18    19 1   
    47    18    65 3   
    48    19    34 2   
    49    20    21 1   
    50    20    55 1   
    51    20    56 1   
    52    21    22 1   
    53    21    57 1   
    54    21    58 1   
    55    22    23 ar  
    56    22    27 ar  
    57    23    24 ar  
    58    23    30 1   
    59    24    25 ar  
    60    24    59 1   
    61    25    26 ar  
    62    25    60 1   
    63    26    27 ar  
    64    26    61 1   
    65    27    62 1   
    66    28    65 1   
    67    29    63 1   
    68    31    66 1   
    69    64    66 1   
@<TRIPOS>SUBSTRUCTURE
     1 K1Q         1 TEMP              0 ****  ****    0 ROOT
