@<TRIPOS>MOLECULE
K1R
   30    29     1     0     0
SMALL
No Charge or Current Charge


@<TRIPOS>ATOM
      1 N1          -0.6530     1.4110     0.9820 n8         1 K1R      -0.997200
      2 CA1          0.2310     0.6400     0.0310 c3         1 K1R       0.013500
      3 C1           1.7430     1.1050    -0.0460 c          1 K1R       0.692000
      4 O11          2.6160     0.2820     0.1960 o          1 K1R      -0.740000
      5 O12          1.9800     2.2920    -0.2340 o          1 K1R      -0.740000
      6 CB1         -0.3890     0.5980    -1.3900 c3         1 K1R      -0.030400
      7 CG1         -1.7580    -0.1160    -1.4570 c3         1 K1R      -0.047100
      8 OE1         -1.5010    -0.9710    -4.0770 o          1 K1R      -0.524000
      9 N2          -6.8810     0.9370    -6.1180 n8         1 K1R      -1.005200
     10 CA2         -6.7660    -0.5610    -5.9070 c3         1 K1R       0.024500
     11 C2          -7.9980    -1.3190    -5.2490 c          1 K1R       0.728000
     12 SAG         -2.4060    -0.1580    -3.1860 s4         1 K1R       0.307600
     13 NAF         -3.9050    -0.9680    -2.8740 n7         1 K1R      -0.573200
     14 O2          -8.9770    -0.6730    -4.8920 o          1 K1R      -0.731500
     15 O21         -7.9570    -2.5420    -5.1860 o          1 K1R      -0.731500
     16 CB2         -5.4480    -0.9360    -5.1730 c3         1 K1R       0.084600
     17 SG2         -5.4400    -0.3860    -3.4020 ss         1 K1R      -0.128700
     18 H1N1        -0.5810     2.4100     0.7500 hn         1 K1R       0.375500
     19 H1N2        -0.2510     1.3630     1.9260 hn         1 K1R       0.375500
     20 HA1          0.2530    -0.3960     0.3990 h1         1 K1R       0.042700
     21 HB11         0.3080     0.0760    -2.0580 hc         1 K1R       0.046200
     22 HB12        -0.4890     1.6190    -1.7790 hc         1 K1R       0.046200
     23 HG11        -1.6670    -1.1490    -1.1020 h1         1 K1R       0.076700
     24 HG12        -2.4950     0.4120    -0.8400 h1         1 K1R       0.076700
     25 HA2         -6.6860    -0.9780    -6.9200 h1         1 K1R       0.000700
     26 HA          -3.8120    -1.9480    -2.5800 hn         1 K1R       0.465000
     27 HB21        -4.5930    -0.4810    -5.6880 h1         1 K1R       0.065700
     28 HB22        -5.3140    -2.0250    -5.1990 h1         1 K1R       0.065700
     29 H2N1        -7.7610     1.1380    -6.6090 hn         1 K1R       0.382000
     30 H2N2        -6.1530     1.2530    -6.7690 hn         1 K1R       0.382000
@<TRIPOS>BOND
     1     1     2 1   
     2     1    18 1   
     3     1    19 1   
     4     2     3 1   
     5     2     6 1   
     6     2    20 1   
     7     3     4 1   
     8     3     5 1   
     9     6     7 1   
    10     6    21 1   
    11     6    22 1   
    12     7    12 1   
    13     7    23 1   
    14     7    24 1   
    15     8    12 2   
    16     9    10 1   
    17     9    29 1   
    18     9    30 1   
    19    10    11 1   
    20    10    16 1   
    21    10    25 1   
    22    11    14 1   
    23    11    15 1   
    24    12    13 1   
    25    13    17 1   
    26    13    26 1   
    27    16    17 1   
    28    16    27 1   
    29    16    28 1   
@<TRIPOS>SUBSTRUCTURE
     1 K1R         1 TEMP              0 ****  ****    0 ROOT
