@<TRIPOS>MOLECULE
K1R
   30    29     1     0     0
SMALL
abcg2


@<TRIPOS>ATOM
      1 N1          -0.5040     0.6190     1.0570 n8         1 K1R      -0.997200
      2 CA1          0.2000     0.2290    -0.1530 c3         1 K1R       0.013500
      3 C1           1.6950     0.6390    -0.2230 c          1 K1R       0.692000
      4 O11          2.3550     0.1280    -1.1510 o          1 K1R      -0.740000
      5 O12          2.1080     1.4520     0.6260 o          1 K1R      -0.740000
      6 CB1         -0.5190     0.7890    -1.3850 c3         1 K1R      -0.030400
      7 CG1         -1.9630     0.3260    -1.4610 c3         1 K1R      -0.047100
      8 OE1         -2.0080     0.4900    -4.1170 o          1 K1R      -0.524000
      9 N2          -6.9500     0.4260    -6.2980 n8         1 K1R      -1.005200
     10 CA2         -6.4910    -0.9040    -5.9330 c3         1 K1R       0.024500
     11 C2          -7.5610    -1.6560    -5.1020 c          1 K1R       0.728000
     12 SAG         -2.7570     1.0190    -2.9350 s4         1 K1R       0.307600
     13 NAF         -4.1700     0.0520    -2.8210 n7         1 K1R      -0.573200
     14 O2          -8.7310    -1.2350    -5.1760 o          1 K1R      -0.731500
     15 O21         -7.1660    -2.6550    -4.4730 o          1 K1R      -0.731500
     16 CB2         -5.1760    -0.7680    -5.1890 c3         1 K1R       0.084600
     17 SG2         -5.3990     0.5210    -3.9260 ss         1 K1R      -0.128700
     18 H1N1        -0.2900     1.5920     1.2440 hn         1 K1R       0.375500
     19 H1N2        -0.1030     0.1180     1.8400 hn         1 K1R       0.375500
     20 HA1          0.1560    -0.8640    -0.2220 h1         1 K1R       0.042700
     21 HB11         0.0170     0.4700    -2.2800 hc         1 K1R       0.046200
     22 HB12        -0.4780     1.8850    -1.3600 hc         1 K1R       0.046200
     23 HG11        -2.0330    -0.7630    -1.5370 h1         1 K1R       0.076700
     24 HG12        -2.5310     0.6600    -0.5920 h1         1 K1R       0.076700
     25 HA2         -6.2980    -1.5420    -6.8130 h1         1 K1R       0.000700
     26 HA          -4.5060    -0.0710    -1.8710 hn         1 K1R       0.465000
     27 HB21        -4.3640    -0.4760    -5.8580 h1         1 K1R       0.065700
     28 HB22        -4.9020    -1.6950    -4.6920 h1         1 K1R       0.065700
     29 H2N1        -7.9300     0.3800    -6.5410 hn         1 K1R       0.382000
     30 H2N2        -6.4490     0.7630    -7.1100 hn         1 K1R       0.382000
@<TRIPOS>BOND
     1     1     2 1   
     2     1    18 1   
     3     1    19 1   
     4     2     3 1   
     5     2     6 1   
     6     2    20 1   
     7     3     4 1   
     8     3     5 1   
     9     6     7 1   
    10     6    21 1   
    11     6    22 1   
    12     7    12 1   
    13     7    23 1   
    14     7    24 1   
    15     8    12 2   
    16     9    10 1   
    17     9    29 1   
    18     9    30 1   
    19    10    11 1   
    20    10    16 1   
    21    10    25 1   
    22    11    14 1   
    23    11    15 1   
    24    12    13 1   
    25    13    17 1   
    26    13    26 1   
    27    16    17 1   
    28    16    27 1   
    29    16    28 1   
@<TRIPOS>SUBSTRUCTURE
     1 K1R         1 TEMP              0 ****  ****    0 ROOT
