@<TRIPOS>MOLECULE
K1T
   53    54     1     0     0
SMALL
No Charge or Current Charge


@<TRIPOS>ATOM
      1 C1           0.3350    -3.9800     1.1820 c3         1 K1T      -0.085100
      2 C2          -0.0840    -3.9200    -0.3060 c3         1 K1T      -0.064700
      3 C3          -0.9280    -5.1600    -0.6830 c3         1 K1T      -0.085100
      4 C4          -0.8410    -2.6090    -0.6720 c3         1 K1T      -0.059400
      5 C5          -0.0990    -1.2590    -0.4060 c3         1 K1T      -0.080700
      6 C7           1.2740    -1.1850    -1.1390 c3         1 K1T      -0.019100
      7 C8           2.0060     0.1470    -0.9610 ca         1 K1T      -0.068300
      8 C9           2.7200     0.4540     0.2330 ca         1 K1T      -0.095600
      9 C10          3.3470     1.7080     0.3160 ca         1 K1T       0.061100
     10 C11          3.2920     2.6140    -0.7070 ca         1 K1T       0.026100
     11 C12          2.6080     2.3430    -1.8950 ca         1 K1T      -0.131000
     12 C13          1.9610     1.0970    -2.0140 ca         1 K1T      -0.137000
     13 O14          3.9810     3.7510    -0.4340 os         1 K1T      -0.369100
     14 C15          4.4100     3.5400     0.9570 c5         1 K1T       0.369600
     15 O16          4.0880     2.1650     1.3600 os         1 K1T      -0.318100
     16 C17          2.8300    -0.5080     1.3830 c          1 K1T       0.724600
     17 O18          2.1370    -0.3080     2.3720 o          1 K1T      -0.708500
     18 O19          3.6240    -1.4340     1.2860 o          1 K1T      -0.708500
     19 C20         -0.9890    -0.0350    -0.7660 c3         1 K1T       0.094000
     20 N21         -2.2580    -0.0000    -0.0290 ns         1 K1T      -0.493900
     21 C22         -3.4870    -0.3410    -0.5490 c          1 K1T       0.600100
     22 O23         -3.6360    -0.6980    -1.7100 o          1 K1T      -0.628100
     23 C24         -4.6500    -0.2750     0.4460 c3         1 K1T      -0.162400
     24 C25         -5.5680     0.9400     0.1670 c3         1 K1T      -0.069400
     25 C26         -6.7510     1.0370     1.1520 c3         1 K1T       0.146800
     26 N27         -7.6020     2.2050     0.8640 n8         1 K1T      -0.997200
     27 H1           1.0500    -3.1860     1.4250 hc         1 K1T       0.027533
     28 H1A         -0.5380    -3.8720     1.8380 hc         1 K1T       0.027533
     29 H1B          0.8180    -4.9370     1.4100 hc         1 K1T       0.027533
     30 H2           0.8290    -3.9750    -0.9120 hc         1 K1T       0.078700
     31 H3          -1.8620    -5.1870    -0.1090 hc         1 K1T       0.027533
     32 H3A         -1.1820    -5.1470    -1.7500 hc         1 K1T       0.027533
     33 H3B         -0.3740    -6.0840    -0.4810 hc         1 K1T       0.027533
     34 H4          -1.1130    -2.6480    -1.7340 hc         1 K1T       0.027200
     35 H4A         -1.7860    -2.6120    -0.1150 hc         1 K1T       0.027200
     36 H5           0.0950    -1.1900     0.6700 hc         1 K1T       0.086700
     37 H7           1.9220    -1.9960    -0.7910 hc         1 K1T       0.053700
     38 H7A          1.1120    -1.3800    -2.2060 hc         1 K1T       0.053700
     39 H12          2.5790     3.0720    -2.7010 ha         1 K1T       0.108000
     40 H13          1.4180     0.8690    -2.9290 ha         1 K1T       0.094000
     41 H15          5.4900     3.7080     1.0420 h2         1 K1T       0.043200
     42 H15A         3.8660     4.2370     1.6050 h2         1 K1T       0.043200
     43 H20         -0.4520     0.8930    -0.5300 h1         1 K1T       0.056700
     44 H20A        -1.1880    -0.0320    -1.8460 h1         1 K1T       0.056700
     45 HN21        -2.2400     0.2780     0.9450 hn         1 K1T       0.313500
     46 H24         -5.2470    -1.1900     0.3490 hc         1 K1T       0.053700
     47 H24A        -4.2650    -0.1910     1.4690 hc         1 K1T       0.053700
     48 H25         -4.9730     1.8600     0.2260 hc         1 K1T       0.059200
     49 H25A        -5.9540     0.8720    -0.8570 hc         1 K1T       0.059200
     50 H26         -7.3650     0.1280     1.0860 h1         1 K1T       0.024200
     51 H26A        -6.3710     1.1250     2.1790 h1         1 K1T       0.024200
     52 HN27        -8.0350     2.0830    -0.0600 hn         1 K1T       0.388000
     53 HN2A        -8.4040     2.2010     1.5070 hn         1 K1T       0.388000
@<TRIPOS>BOND
     1     1     2 1   
     2     1    27 1   
     3     1    28 1   
     4     1    29 1   
     5     2     3 1   
     6     2     4 1   
     7     2    30 1   
     8     3    31 1   
     9     3    32 1   
    10     3    33 1   
    11     4     5 1   
    12     4    34 1   
    13     4    35 1   
    14     5     6 1   
    15     5    19 1   
    16     5    36 1   
    17     6     7 1   
    18     6    37 1   
    19     6    38 1   
    20     7     8 ar  
    21     7    12 ar  
    22     8     9 ar  
    23     8    16 1   
    24     9    10 ar  
    25     9    15 1   
    26    10    11 ar  
    27    10    13 1   
    28    11    12 ar  
    29    11    39 1   
    30    12    40 1   
    31    13    14 1   
    32    14    15 1   
    33    14    41 1   
    34    14    42 1   
    35    16    17 1   
    36    16    18 1   
    37    19    20 1   
    38    19    43 1   
    39    19    44 1   
    40    20    21 1   
    41    20    45 1   
    42    21    22 2   
    43    21    23 1   
    44    23    24 1   
    45    23    46 1   
    46    23    47 1   
    47    24    25 1   
    48    24    48 1   
    49    24    49 1   
    50    25    26 1   
    51    25    50 1   
    52    25    51 1   
    53    26    52 1   
    54    26    53 1   
@<TRIPOS>SUBSTRUCTURE
     1 K1T         1 TEMP              0 ****  ****    0 ROOT
