@<TRIPOS>MOLECULE
K1T
   53    54     1     0     0
SMALL
abcg2


@<TRIPOS>ATOM
      1 C1          -0.2260    -3.4240     1.4660 c3         1 K1T      -0.085100
      2 C2          -0.1190    -3.5880    -0.0470 c3         1 K1T      -0.064700
      3 C3          -0.7500    -4.9070    -0.4840 c3         1 K1T      -0.085100
      4 C4          -0.7780    -2.4280    -0.7980 c3         1 K1T      -0.059400
      5 C5          -0.0970    -1.0670    -0.6610 c3         1 K1T      -0.080700
      6 C7           1.1950    -1.0060    -1.4930 c3         1 K1T      -0.019100
      7 C8           2.0650     0.1810    -1.1760 ca         1 K1T      -0.068300
      8 C9           2.7720     0.2360     0.0460 ca         1 K1T      -0.095600
      9 C10          3.4850     1.3880     0.2790 ca         1 K1T       0.061100
     10 C11          3.5600     2.4340    -0.6250 ca         1 K1T       0.026100
     11 C12          2.8890     2.3980    -1.8200 ca         1 K1T      -0.131000
     12 C13          2.1320     1.2460    -2.0680 ca         1 K1T      -0.137000
     13 O14          4.3900     3.3960    -0.1410 os         1 K1T      -0.369100
     14 C15          4.6430     3.0360     1.2100 c5         1 K1T       0.369600
     15 O16          4.2770     1.6740     1.3510 os         1 K1T      -0.318100
     16 C17          2.7940    -0.8950     1.0670 c          1 K1T       0.724600
     17 O18          2.3560    -0.6160     2.1970 o          1 K1T      -0.708500
     18 O19          3.2700    -1.9750     0.6760 o          1 K1T      -0.708500
     19 C20         -1.0310     0.0660    -1.0950 c3         1 K1T       0.094000
     20 N21         -2.1680     0.2290    -0.2170 ns         1 K1T      -0.493900
     21 C22         -3.4450    -0.0230    -0.5490 c          1 K1T       0.600100
     22 O23         -3.7930    -0.3660    -1.6730 o          1 K1T      -0.628100
     23 C24         -4.4390     0.1210     0.5840 c3         1 K1T      -0.162400
     24 C25         -5.7720     0.7050     0.1360 c3         1 K1T      -0.069400
     25 C26         -6.7830     0.7510     1.2700 c3         1 K1T       0.146800
     26 N27         -8.0420     1.3230     0.8160 n8         1 K1T      -0.997200
     27 H1           0.3060    -2.5440     1.8270 hc         1 K1T       0.027533
     28 H1A         -1.2710    -3.3400     1.7760 hc         1 K1T       0.027533
     29 H1B          0.1990    -4.2890     1.9800 hc         1 K1T       0.027533
     30 H2           0.9450    -3.6270    -0.3040 hc         1 K1T       0.078700
     31 H3          -1.8180    -4.9280    -0.2490 hc         1 K1T       0.027533
     32 H3A         -0.6480    -5.0590    -1.5600 hc         1 K1T       0.027533
     33 H3B         -0.2860    -5.7580     0.0190 hc         1 K1T       0.027533
     34 H4          -0.8370    -2.6740    -1.8660 hc         1 K1T       0.027200
     35 H4A         -1.8150    -2.3530    -0.4520 hc         1 K1T       0.027200
     36 H5           0.1590    -0.8920     0.3900 hc         1 K1T       0.086700
     37 H7           1.7670    -1.9200    -1.3370 hc         1 K1T       0.053700
     38 H7A          0.9230    -0.9850    -2.5530 hc         1 K1T       0.053700
     39 H12          2.9390     3.2070    -2.5350 ha         1 K1T       0.108000
     40 H13          1.5720     1.1870    -2.9940 ha         1 K1T       0.094000
     41 H15          5.7030     3.1600     1.4330 h2         1 K1T       0.043200
     42 H15A         4.0360     3.6570     1.8800 h2         1 K1T       0.043200
     43 H20         -0.4780     1.0080    -1.1240 h1         1 K1T       0.056700
     44 H20A        -1.4010    -0.1180    -2.1040 h1         1 K1T       0.056700
     45 HN21        -1.9740     0.5130     0.7290 hn         1 K1T       0.313500
     46 H24         -4.5980    -0.8820     0.9980 hc         1 K1T       0.053700
     47 H24A        -4.0190     0.7190     1.3970 hc         1 K1T       0.053700
     48 H25         -5.6250     1.7160    -0.2550 hc         1 K1T       0.059200
     49 H25A        -6.1740     0.1050    -0.6850 hc         1 K1T       0.059200
     50 H26         -6.8860    -0.2580     1.6950 h1         1 K1T       0.024200
     51 H26A        -6.3940     1.3810     2.0760 h1         1 K1T       0.024200
     52 HN27        -8.4740     0.6930     0.1510 hn         1 K1T       0.388000
     53 HN2A        -8.6870     1.3820     1.5930 hn         1 K1T       0.388000
@<TRIPOS>BOND
     1     1     2 1   
     2     1    27 1   
     3     1    28 1   
     4     1    29 1   
     5     2     3 1   
     6     2     4 1   
     7     2    30 1   
     8     3    31 1   
     9     3    32 1   
    10     3    33 1   
    11     4     5 1   
    12     4    34 1   
    13     4    35 1   
    14     5     6 1   
    15     5    19 1   
    16     5    36 1   
    17     6     7 1   
    18     6    37 1   
    19     6    38 1   
    20     7     8 ar  
    21     7    12 ar  
    22     8     9 ar  
    23     8    16 1   
    24     9    10 ar  
    25     9    15 1   
    26    10    11 ar  
    27    10    13 1   
    28    11    12 ar  
    29    11    39 1   
    30    12    40 1   
    31    13    14 1   
    32    14    15 1   
    33    14    41 1   
    34    14    42 1   
    35    16    17 1   
    36    16    18 1   
    37    19    20 1   
    38    19    43 1   
    39    19    44 1   
    40    20    21 1   
    41    20    45 1   
    42    21    22 2   
    43    21    23 1   
    44    23    24 1   
    45    23    46 1   
    46    23    47 1   
    47    24    25 1   
    48    24    48 1   
    49    24    49 1   
    50    25    26 1   
    51    25    50 1   
    52    25    51 1   
    53    26    52 1   
    54    26    53 1   
@<TRIPOS>SUBSTRUCTURE
     1 K1T         1 TEMP              0 ****  ****    0 ROOT
