@<TRIPOS>MOLECULE
K1U
   41    42     1     0     0
SMALL
No Charge or Current Charge


@<TRIPOS>ATOM
      1 O1          -3.2930    -2.7080     1.4440 o          1 K1U      -0.732000
      2 C8          -2.3230    -2.6010     0.7100 c          1 K1U       0.718000
      3 O2          -1.2860    -3.2270     0.8630 o          1 K1U      -0.732000
      4 C24         -2.4100    -1.6350    -0.4860 c3         1 K1U      -0.216400
      5 C9          -1.9540    -0.1790    -0.1310 c3         1 K1U      -0.101700
      6 C1          -2.8880     0.5720     0.8610 c3         1 K1U      -0.025100
      7 C2          -4.2920     0.8100     0.3130 ca         1 K1U      -0.053300
      8 C3          -4.4990     1.7380    -0.7270 ca         1 K1U      -0.103000
      9 C4          -5.7910     1.9630    -1.2340 ca         1 K1U      -0.119000
     10 C5          -6.8860     1.2610    -0.7030 ca         1 K1U      -0.130000
     11 C6          -6.6880     0.3360     0.3360 ca         1 K1U      -0.119000
     12 C7          -5.3960     0.1120     0.8420 ca         1 K1U      -0.103000
     13 C10         -0.4760    -0.1210     0.3270 c          1 K1U       0.673700
     14 O3          -0.1140    -0.3470     1.4760 o          1 K1U      -0.556100
     15 S1           0.6930     0.3150    -1.0020 ss         1 K1U      -0.315600
     16 C11          2.3070     0.2670    -0.0660 c3         1 K1U      -0.063400
     17 C12          3.5520     0.5980    -0.9160 c          1 K1U       0.591700
     18 O4           3.4460     0.8680    -2.1080 o          1 K1U      -0.500100
     19 C13          4.9150     0.5840    -0.2490 ca         1 K1U      -0.162600
     20 C14          5.0690     0.2770     1.1260 ca         1 K1U      -0.063000
     21 C15          6.3450     0.2710     1.7180 ca         1 K1U      -0.130000
     22 C16          7.4820     0.5700     0.9520 ca         1 K1U      -0.095000
     23 C17          7.3440     0.8750    -0.4100 ca         1 K1U      -0.130000
     24 C18          6.0720     0.8820    -1.0070 ca         1 K1U      -0.063000
     25 H2          -1.7300    -1.9710    -1.2790 hc         1 K1U       0.039700
     26 H3          -3.4510    -1.5510    -0.8200 hc         1 K1U       0.039700
     27 H4          -1.9890     0.3520    -1.0900 hc         1 K1U       0.033700
     28 H5          -2.9300     0.0270     1.8120 hc         1 K1U       0.064200
     29 H6          -2.4360     1.5430     1.1000 hc         1 K1U       0.064200
     30 H7          -3.6570     2.2880    -1.1430 ha         1 K1U       0.117500
     31 H8          -5.9420     2.6800    -2.0370 ha         1 K1U       0.099000
     32 H9          -7.8860     1.4340    -1.0950 ha         1 K1U       0.095000
     33 H10         -7.5350    -0.2080     0.7480 ha         1 K1U       0.099000
     34 H11         -5.2530    -0.6080     1.6450 ha         1 K1U       0.117500
     35 H12          2.2650     0.9890     0.7590 h1         1 K1U       0.089700
     36 H13          2.4480    -0.7350     0.3560 h1         1 K1U       0.089700
     37 H14          4.2120     0.0400     1.7530 ha         1 K1U       0.129000
     38 H15          6.4510     0.0340     2.7740 ha         1 K1U       0.110000
     39 H16          8.4670     0.5640     1.4140 ha         1 K1U       0.105000
     40 H17          8.2240     1.1070    -1.0060 ha         1 K1U       0.110000
     41 H18          5.9910     1.1220    -2.0660 ha         1 K1U       0.129000
@<TRIPOS>BOND
     1     1     2 1   
     2     2     3 1   
     3     2     4 1   
     4     4     5 1   
     5     4    25 1   
     6     4    26 1   
     7     5     6 1   
     8     5    13 1   
     9     5    27 1   
    10     6     7 1   
    11     6    28 1   
    12     6    29 1   
    13     7     8 ar  
    14     7    12 ar  
    15     8     9 ar  
    16     8    30 1   
    17     9    10 ar  
    18     9    31 1   
    19    10    11 ar  
    20    10    32 1   
    21    11    12 ar  
    22    11    33 1   
    23    12    34 1   
    24    13    14 2   
    25    13    15 1   
    26    15    16 1   
    27    16    17 1   
    28    16    35 1   
    29    16    36 1   
    30    17    18 2   
    31    17    19 1   
    32    19    20 ar  
    33    19    24 ar  
    34    20    21 ar  
    35    20    37 1   
    36    21    22 ar  
    37    21    38 1   
    38    22    23 ar  
    39    22    39 1   
    40    23    24 ar  
    41    23    40 1   
    42    24    41 1   
@<TRIPOS>SUBSTRUCTURE
     1 K1U         1 TEMP              0 ****  ****    0 ROOT
