@<TRIPOS>MOLECULE
K1U
   41    42     1     0     0
SMALL
bcc


@<TRIPOS>ATOM
      1 O1          -2.3570    -3.2650    -0.6250 o          1 K1U      -0.837300
      2 C8          -1.9030    -2.2100    -0.1430 c          1 K1U       0.928600
      3 O2          -1.2230    -2.0940     0.8960 o          1 K1U      -0.837300
      4 C24         -2.1830    -0.9180    -0.9270 c3         1 K1U      -0.216400
      5 C9          -1.8880     0.3550    -0.1390 c3         1 K1U      -0.101700
      6 C1          -2.8820     0.6120     1.0020 c3         1 K1U      -0.025100
      7 C2          -4.2980     0.7240     0.5110 ca         1 K1U      -0.053300
      8 C3          -4.7140     1.8490    -0.1990 ca         1 K1U      -0.121000
      9 C4          -6.0130     1.9550    -0.6730 ca         1 K1U      -0.137000
     10 C5          -6.9260     0.9320    -0.4420 ca         1 K1U      -0.148000
     11 C6          -6.5260    -0.1920     0.2680 ca         1 K1U      -0.137000
     12 C7          -5.2220    -0.2930     0.7370 ca         1 K1U      -0.121000
     13 C10         -0.4650     0.3960     0.3800 c          1 K1U       0.673700
     14 O3          -0.1380     0.8120     1.4610 o          1 K1U      -0.556100
     15 S1           0.7500    -0.0470    -0.8530 ss         1 K1U      -0.267700
     16 C11          2.2530     0.2810     0.0900 c3         1 K1U      -0.111300
     17 C12          3.4570    -0.0470    -0.7580 c          1 K1U       0.591700
     18 O4           3.3270    -0.4720    -1.8850 o          1 K1U      -0.500100
     19 C13          4.8000     0.1630    -0.1590 ca         1 K1U      -0.162600
     20 C14          4.9640     0.6860     1.1240 ca         1 K1U      -0.081000
     21 C15          6.2340     0.8720     1.6480 ca         1 K1U      -0.148000
     22 C16          7.3510     0.5330     0.8970 ca         1 K1U      -0.113000
     23 C17          7.1970     0.0090    -0.3820 ca         1 K1U      -0.148000
     24 C18          5.9300    -0.1730    -0.9080 ca         1 K1U      -0.081000
     25 H2          -1.5900    -0.9400    -1.8480 hc         1 K1U       0.039700
     26 H3          -3.2200    -0.8990    -1.2680 hc         1 K1U       0.039700
     27 H4          -1.9510     1.2000    -0.8390 hc         1 K1U       0.033700
     28 H5          -2.8020    -0.1930     1.7340 hc         1 K1U       0.064200
     29 H6          -2.6050     1.5370     1.5120 hc         1 K1U       0.064200
     30 H7          -4.0110     2.6550    -0.3800 ha         1 K1U       0.135500
     31 H8          -6.3170     2.8380    -1.2210 ha         1 K1U       0.117000
     32 H9          -7.9400     1.0130    -0.8090 ha         1 K1U       0.113000
     33 H10         -7.2300    -0.9920     0.4580 ha         1 K1U       0.117000
     34 H11         -4.9180    -1.1750     1.2900 ha         1 K1U       0.135500
     35 H12          2.2870     1.3270     0.4020 h1         1 K1U       0.089700
     36 H13          2.2660    -0.3270     0.9970 h1         1 K1U       0.089700
     37 H14          4.1080     0.9560     1.7280 ha         1 K1U       0.147000
     38 H15          6.3520     1.2810     2.6430 ha         1 K1U       0.128000
     39 H16          8.3420     0.6760     1.3070 ha         1 K1U       0.123000
     40 H17          8.0680    -0.2550    -0.9680 ha         1 K1U       0.128000
     41 H18          5.8150    -0.5800    -1.9040 ha         1 K1U       0.147000
@<TRIPOS>BOND
     1     1     2 1   
     2     2     3 1   
     3     2     4 1   
     4     4     5 1   
     5     4    25 1   
     6     4    26 1   
     7     5     6 1   
     8     5    13 1   
     9     5    27 1   
    10     6     7 1   
    11     6    28 1   
    12     6    29 1   
    13     7     8 ar  
    14     7    12 ar  
    15     8     9 ar  
    16     8    30 1   
    17     9    10 ar  
    18     9    31 1   
    19    10    11 ar  
    20    10    32 1   
    21    11    12 ar  
    22    11    33 1   
    23    12    34 1   
    24    13    14 2   
    25    13    15 1   
    26    15    16 1   
    27    16    17 1   
    28    16    35 1   
    29    16    36 1   
    30    17    18 2   
    31    17    19 1   
    32    19    20 ar  
    33    19    24 ar  
    34    20    21 ar  
    35    20    37 1   
    36    21    22 ar  
    37    21    38 1   
    38    22    23 ar  
    39    22    39 1   
    40    23    24 ar  
    41    23    40 1   
    42    24    41 1   
@<TRIPOS>SUBSTRUCTURE
     1 K1U         1 TEMP              0 ****  ****    0 ROOT
