@<TRIPOS>MOLECULE
K1V
   26    26     1     0     0
SMALL
abcg2


@<TRIPOS>ATOM
      1 N1           3.0610     1.2610     0.7970 nt         1 K1V      -0.606000
      2 C4           1.0990    -1.4080     0.3280 c6         1 K1V      -0.067400
      3 C5           1.0280     0.1170     0.1730 c6         1 K1V      -0.170700
      4 C6          -0.0060     0.4880    -0.8930 c6         1 K1V       0.102000
      5 C7           2.3920     0.6650    -0.1990 c          1 K1V       0.609100
      6 N           -1.2960    -0.0830    -0.5550 n          1 K1V      -0.411800
      7 C           -3.5910     0.0200     0.2920 c3         1 K1V      -0.177100
      8 O           -2.2290     1.9270    -0.1290 o          1 K1V      -0.605100
      9 C1          -2.3160     0.7050    -0.1430 c          1 K1V       0.605100
     10 C2          -1.2790    -1.5330    -0.4670 c6         1 K1V       0.099000
     11 C3          -0.2850    -1.9880     0.5940 c6         1 K1V      -0.100400
     12 O1           2.8470     0.5440    -1.3290 o          1 K1V      -0.607100
     13 H1           2.6700     1.3530     1.7190 hn         1 K1V       0.314000
     14 H2           3.9900     1.6210     0.6490 hn         1 K1V       0.314000
     15 H3           1.5060    -1.8440    -0.5900 hc         1 K1V       0.053200
     16 H4           1.7820    -1.6730     1.1370 hc         1 K1V       0.053200
     17 H5           0.7050     0.5510     1.1260 hc         1 K1V       0.059700
     18 H6          -0.1030     1.5660    -0.9860 h1         1 K1V       0.077200
     19 H7           0.3070     0.0970    -1.8640 h1         1 K1V       0.077200
     20 H8          -4.3220     0.7780     0.5640 hc         1 K1V       0.060033
     21 H9          -4.0130    -0.5970    -0.5010 hc         1 K1V       0.060033
     22 H10         -3.4290    -0.6240     1.1570 hc         1 K1V       0.060033
     23 H11         -2.2720    -1.9170    -0.2520 h1         1 K1V       0.052200
     24 H12         -0.9900    -1.9360    -1.4430 h1         1 K1V       0.052200
     25 H13         -0.2420    -3.0790     0.6040 hc         1 K1V       0.048700
     26 H14         -0.6420    -1.6710     1.5790 hc         1 K1V       0.048700
@<TRIPOS>BOND
     1     1     5 1   
     2     1    13 1   
     3     1    14 1   
     4     2     3 1   
     5     2    11 1   
     6     2    15 1   
     7     2    16 1   
     8     3     4 1   
     9     3     5 1   
    10     3    17 1   
    11     4     6 1   
    12     4    18 1   
    13     4    19 1   
    14     5    12 2   
    15     6     9 1   
    16     6    10 1   
    17     7     9 1   
    18     7    20 1   
    19     7    21 1   
    20     7    22 1   
    21     8     9 2   
    22    10    11 1   
    23    10    23 1   
    24    10    24 1   
    25    11    25 1   
    26    11    26 1   
@<TRIPOS>SUBSTRUCTURE
     1 K1V         1 TEMP              0 ****  ****    0 ROOT
