@<TRIPOS>MOLECULE
K1V
   26    26     1     0     0
SMALL
No Charge or Current Charge


@<TRIPOS>ATOM
      1 N1           3.0880     1.3290     0.7930 nt         1 K1V      -0.606000
      2 C4           1.1400    -1.4770     0.3110 c6         1 K1V      -0.067400
      3 C5           1.0970     0.0610     0.0980 c6         1 K1V      -0.170700
      4 C6           0.0070     0.5120    -0.9040 c6         1 K1V       0.102000
      5 C7           2.4760     0.6660    -0.2100 c          1 K1V       0.609100
      6 N           -1.3140    -0.0680    -0.5350 n          1 K1V      -0.411800
      7 C           -3.7180     0.0780     0.2830 c3         1 K1V      -0.177100
      8 O           -2.2880     1.9590    -0.0540 o          1 K1V      -0.605100
      9 C1          -2.3930     0.7400    -0.1010 c          1 K1V       0.605100
     10 C2          -1.2940    -1.5550    -0.4510 c6         1 K1V       0.099000
     11 C3          -0.2760    -2.0270     0.6150 c6         1 K1V      -0.100400
     12 O1           3.0230     0.5470    -1.2930 o          1 K1V      -0.607100
     13 H1           2.6380     1.4150     1.6920 hn         1 K1V       0.314000
     14 H2           3.9990     1.7330     0.6340 hn         1 K1V       0.314000
     15 H3           1.5350    -1.9640    -0.5920 hc         1 K1V       0.053200
     16 H4           1.8270    -1.7320     1.1300 hc         1 K1V       0.053200
     17 H5           0.8080     0.4720     1.0750 hc         1 K1V       0.059700
     18 H6          -0.0360     1.6100    -0.9350 h1         1 K1V       0.077200
     19 H7           0.2740     0.1730    -1.9160 h1         1 K1V       0.077200
     20 H8          -4.4900     0.8090     0.5470 hc         1 K1V       0.060033
     21 H9          -4.0480    -0.5740    -0.5330 hc         1 K1V       0.060033
     22 H10         -3.5440    -0.6240     1.1050 hc         1 K1V       0.060033
     23 H11         -2.2820    -1.9700    -0.2170 h1         1 K1V       0.052200
     24 H12         -1.0050    -1.9610    -1.4310 h1         1 K1V       0.052200
     25 H13         -0.2520    -3.1250     0.6500 hc         1 K1V       0.048700
     26 H14         -0.6020    -1.6880     1.6080 hc         1 K1V       0.048700
@<TRIPOS>BOND
     1     1     5 1   
     2     1    13 1   
     3     1    14 1   
     4     2     3 1   
     5     2    11 1   
     6     2    15 1   
     7     2    16 1   
     8     3     4 1   
     9     3     5 1   
    10     3    17 1   
    11     4     6 1   
    12     4    18 1   
    13     4    19 1   
    14     5    12 2   
    15     6     9 1   
    16     6    10 1   
    17     7     9 1   
    18     7    20 1   
    19     7    21 1   
    20     7    22 1   
    21     8     9 2   
    22    10    11 1   
    23    10    23 1   
    24    10    24 1   
    25    11    25 1   
    26    11    26 1   
@<TRIPOS>SUBSTRUCTURE
     1 K1V         1 TEMP              0 ****  ****    0 ROOT
