@<TRIPOS>MOLECULE
K1W
   46    48     1     0     0
SMALL
abcg2


@<TRIPOS>ATOM
      1 O2          -4.6630     0.8750    17.6630 o          1 K1W      -0.552500
      2 S           -5.7160     1.1320    16.7040 sy         1 K1W       1.155600
      3 O1          -6.9970     1.5850    17.1980 o          1 K1W      -0.552500
      4 N2          -5.8430    -0.2390    15.8040 n8         1 K1W      -1.019100
      5 C15         -5.1470     2.3180    15.5170 ca         1 K1W      -0.268500
      6 C14         -3.8860     2.1540    14.9480 ca         1 K1W      -0.013000
      7 C13         -3.4170     3.1090    14.0620 ca         1 K1W      -0.103500
      8 C16         -5.9460     3.4090    15.1990 ca         1 K1W      -0.013000
      9 C17         -5.4740     4.3530    14.2970 ca         1 K1W      -0.103500
     10 C12         -4.2070     4.2140    13.7380 ca         1 K1W      -0.081600
     11 C           -3.7370     5.2070    12.7130 c          1 K1W       0.611700
     12 O           -4.3270     5.2560    11.6290 o          1 K1W      -0.593100
     13 N           -2.6780     5.9800    13.0270 n          1 K1W      -0.402800
     14 C4          -2.0890     6.8640    12.0110 c6         1 K1W       0.066700
     15 C3          -2.0300     8.2980    12.5600 c6         1 K1W       0.141800
     16 N1          -1.4180     8.4210    13.8810 n7         1 K1W      -0.848400
     17 C2          -2.0390     7.5070    14.8370 c6         1 K1W       0.134800
     18 C1          -2.0730     6.0550    14.3590 c6         1 K1W       0.065000
     19 C5          -0.7130     6.3420    11.5530 c3         1 K1W      -0.040100
     20 C6          -0.7670     4.9180    11.0680 ca         1 K1W      -0.080300
     21 C11         -0.3320     3.8690    11.8790 ca         1 K1W      -0.102500
     22 C10         -0.4350     2.5470    11.4570 ca         1 K1W      -0.109000
     23 C9          -0.9760     2.2540    10.2090 ca         1 K1W      -0.107000
     24 C8          -1.4050     3.2930     9.3870 ca         1 K1W      -0.109000
     25 C7          -1.3010     4.6110     9.8150 ca         1 K1W      -0.102500
     26 H1          -5.7210    -1.0670    16.3800 hn         1 K1W       0.480000
     27 H2          -6.7030    -0.2760    15.2650 hn         1 K1W       0.480000
     28 H3          -3.2790     1.2950    15.1980 ha         1 K1W       0.139000
     29 H4          -2.4350     3.0010    13.6210 ha         1 K1W       0.131000
     30 H5          -6.9210     3.5170    15.6520 ha         1 K1W       0.139000
     31 H6          -6.0890     5.2040    14.0360 ha         1 K1W       0.131000
     32 H7          -2.7650     6.8470    11.1600 h1         1 K1W       0.094700
     33 H8          -1.4880     8.9290    11.8540 h1         1 K1W       0.064700
     34 H9          -3.0540     8.6760    12.6290 h1         1 K1W       0.064700
     35 H10         -0.4230     8.2310    13.8250 hn         1 K1W       0.408000
     36 H12         -1.5020     7.5580    15.7850 h1         1 K1W       0.063700
     37 H13         -3.0660     7.8430    15.0130 h1         1 K1W       0.063700
     38 H14         -2.6460     5.4490    15.0530 h1         1 K1W       0.055700
     39 H15         -1.0580     5.6520    14.3200 h1         1 K1W       0.055700
     40 H16          0.0120     6.4240    12.3640 hc         1 K1W       0.049700
     41 H17         -0.3740     7.0020    10.7510 hc         1 K1W       0.049700
     42 H18          0.0890     4.0900    12.8530 ha         1 K1W       0.109000
     43 H19         -0.0960     1.7470    12.1040 ha         1 K1W       0.113000
     44 H20         -1.0590     1.2260     9.8780 ha         1 K1W       0.114000
     45 H21         -1.8230     3.0750     8.4120 ha         1 K1W       0.113000
     46 H22         -1.6440     5.4140     9.1720 ha         1 K1W       0.109000
@<TRIPOS>BOND
     1     1     2 2   
     2     2     3 2   
     3     2     4 1   
     4     2     5 1   
     5     4    26 1   
     6     4    27 1   
     7     5     6 ar  
     8     5     8 ar  
     9     6     7 ar  
    10     6    28 1   
    11     7    10 ar  
    12     7    29 1   
    13     8     9 ar  
    14     8    30 1   
    15     9    10 ar  
    16     9    31 1   
    17    10    11 1   
    18    11    12 2   
    19    11    13 1   
    20    13    14 1   
    21    13    18 1   
    22    14    15 1   
    23    14    19 1   
    24    14    32 1   
    25    15    16 1   
    26    15    33 1   
    27    15    34 1   
    28    16    17 1   
    29    16    35 1   
    30    17    18 1   
    31    17    36 1   
    32    17    37 1   
    33    18    38 1   
    34    18    39 1   
    35    19    20 1   
    36    19    40 1   
    37    19    41 1   
    38    20    21 ar  
    39    20    25 ar  
    40    21    22 ar  
    41    21    42 1   
    42    22    23 ar  
    43    22    43 1   
    44    23    24 ar  
    45    23    44 1   
    46    24    25 ar  
    47    24    45 1   
    48    25    46 1   
@<TRIPOS>SUBSTRUCTURE
     1 K1W         1 TEMP              0 ****  ****    0 ROOT
