@<TRIPOS>MOLECULE
K1W
   46    48     1     0     0
SMALL
No Charge or Current Charge


@<TRIPOS>ATOM
      1 O2          -4.5970     0.3400    17.3300 o          1 K1W      -0.552500
      2 S           -5.7130     0.8610    16.5440 sy         1 K1W       1.155600
      3 O1          -7.0230     1.1290    17.1310 o          1 K1W      -0.552500
      4 N2          -6.0130    -0.3320    15.4780 n8         1 K1W      -1.019100
      5 C15         -5.1840     2.2220    15.4960 ca         1 K1W      -0.268500
      6 C14         -3.8220     2.3800    15.1730 ca         1 K1W      -0.013000
      7 C13         -3.4110     3.4450    14.3530 ca         1 K1W      -0.103500
      8 C16         -6.1310     3.1280    14.9790 ca         1 K1W      -0.013000
      9 C17         -5.7160     4.1900    14.1580 ca         1 K1W      -0.103500
     10 C12         -4.3500     4.3760    13.8510 ca         1 K1W      -0.081600
     11 C           -3.9330     5.5170    12.9420 c          1 K1W       0.611700
     12 O           -4.6830     5.9090    12.0540 o          1 K1W      -0.593100
     13 N           -2.6280     6.0480    13.0760 n          1 K1W      -0.402800
     14 C4          -2.0120     6.8860    11.9980 c6         1 K1W       0.066700
     15 C3          -1.8820     8.3800    12.4300 c6         1 K1W       0.141800
     16 N1          -1.1860     8.5340    13.7370 n7         1 K1W      -0.848400
     17 C2          -1.8560     7.7420    14.8010 c6         1 K1W       0.134800
     18 C1          -1.9910     6.2410    14.4160 c6         1 K1W       0.065000
     19 C5          -0.6580     6.2880    11.5150 c3         1 K1W      -0.040100
     20 C6          -0.7790     4.8310    11.0800 ca         1 K1W      -0.080300
     21 C11         -0.2720     3.7990    11.8950 ca         1 K1W      -0.102500
     22 C10         -0.4090     2.4550    11.5050 ca         1 K1W      -0.109000
     23 C9          -1.0520     2.1350    10.2980 ca         1 K1W      -0.107000
     24 C8          -1.5590     3.1600     9.4810 ca         1 K1W      -0.109000
     25 C7          -1.4230     4.5030     9.8710 ca         1 K1W      -0.102500
     26 H1          -5.4560    -1.0780    15.8890 hn         1 K1W       0.480000
     27 H2          -6.9550    -0.5890    15.7640 hn         1 K1W       0.480000
     28 H3          -3.0790     1.6770    15.5470 ha         1 K1W       0.139000
     29 H4          -2.3580     3.5290    14.0930 ha         1 K1W       0.131000
     30 H5          -7.1900     3.0120    15.2070 ha         1 K1W       0.139000
     31 H6          -6.4600     4.8790    13.7650 ha         1 K1W       0.131000
     32 H7          -2.6690     6.8740    11.1160 h1         1 K1W       0.094700
     33 H8          -1.3500     8.9470    11.6520 h1         1 K1W       0.064700
     34 H9          -2.8920     8.8110    12.5080 h1         1 K1W       0.064700
     35 H10         -0.2250     8.1840    13.6320 hn         1 K1W       0.408000
     36 H12         -1.2950     7.8290    15.7440 h1         1 K1W       0.063700
     37 H13         -2.8620     8.1520    14.9820 h1         1 K1W       0.063700
     38 H14         -2.5770     5.7460    15.2020 h1         1 K1W       0.055700
     39 H15         -0.9960     5.7740    14.4110 h1         1 K1W       0.055700
     40 H16          0.0980     6.3770    12.3050 hc         1 K1W       0.049700
     41 H17         -0.2760     6.8830    10.6770 hc         1 K1W       0.049700
     42 H18          0.2220     4.0360    12.8340 ha         1 K1W       0.109000
     43 H19         -0.0180     1.6630    12.1390 ha         1 K1W       0.113000
     44 H20         -1.1580     1.0950     9.9960 ha         1 K1W       0.114000
     45 H21         -2.0580     2.9130     8.5460 ha         1 K1W       0.113000
     46 H22         -1.8230     5.2900     9.2360 ha         1 K1W       0.109000
@<TRIPOS>BOND
     1     1     2 2   
     2     2     3 2   
     3     2     4 1   
     4     2     5 1   
     5     4    26 1   
     6     4    27 1   
     7     5     6 ar  
     8     5     8 ar  
     9     6     7 ar  
    10     6    28 1   
    11     7    10 ar  
    12     7    29 1   
    13     8     9 ar  
    14     8    30 1   
    15     9    10 ar  
    16     9    31 1   
    17    10    11 1   
    18    11    12 2   
    19    11    13 1   
    20    13    14 1   
    21    13    18 1   
    22    14    15 1   
    23    14    19 1   
    24    14    32 1   
    25    15    16 1   
    26    15    33 1   
    27    15    34 1   
    28    16    17 1   
    29    16    35 1   
    30    17    18 1   
    31    17    36 1   
    32    17    37 1   
    33    18    38 1   
    34    18    39 1   
    35    19    20 1   
    36    19    40 1   
    37    19    41 1   
    38    20    21 ar  
    39    20    25 ar  
    40    21    22 ar  
    41    21    42 1   
    42    22    23 ar  
    43    22    43 1   
    44    23    24 ar  
    45    23    44 1   
    46    24    25 ar  
    47    24    45 1   
    48    25    46 1   
@<TRIPOS>SUBSTRUCTURE
     1 K1W         1 TEMP              0 ****  ****    0 ROOT
