@<TRIPOS>MOLECULE
K1Y
   29    30     1     0     0
SMALL
abcg2


@<TRIPOS>ATOM
      1 N1           1.0830    -2.0720    -0.1010 nc         1 K1Y      -0.617000
      2 C4           0.0320    -4.3010    -0.1390 c3         1 K1Y      -0.126400
      3 C5           0.7850    -0.7340    -0.0680 cc         1 K1Y       0.274500
      4 C6           1.8760     0.2500    -0.0730 ca         1 K1Y      -0.110500
      5 C7           3.0410    -0.0070     0.6550 ca         1 K1Y      -0.097000
      6 C8           4.0840     0.9060     0.6620 ca         1 K1Y      -0.113000
      7 C10          2.8390     2.3480    -0.7970 ca         1 K1Y      -0.113000
      8 N           -1.1360     0.7830     0.1430 ns         1 K1Y      -0.368100
      9 C           -4.1180     2.6750     0.2160 c3         1 K1Y       0.170900
     10 O           -2.7440     2.2890     0.2580 os         1 K1Y      -0.445100
     11 C1          -2.4750     1.0060     0.0760 c          1 K1Y       0.638100
     12 C11          1.7940     1.4330    -0.8090 ca         1 K1Y      -0.097000
     13 C2          -0.5540    -0.4600     0.0010 cd         1 K1Y      -0.067400
     14 C3           0.0290    -2.8130    -0.0850 cd         1 K1Y       0.402700
     15 C9           3.9860     2.0900    -0.0590 ca         1 K1Y      -0.107000
     16 O1          -3.2930     0.1360    -0.1220 o          1 K1Y      -0.518000
     17 S           -1.4630    -1.9290    -0.0140 ss         1 K1Y       0.034600
     18 H1          -0.3390    -4.7350     0.7900 hc         1 K1Y       0.056700
     19 H2          -0.5960    -4.6730    -0.9490 hc         1 K1Y       0.056700
     20 H3           1.0480    -4.6550    -0.3010 hc         1 K1Y       0.056700
     21 H4           3.1240    -0.9250     1.2220 ha         1 K1Y       0.120500
     22 H5           4.9770     0.6930     1.2370 ha         1 K1Y       0.113000
     23 H6           2.7590     3.2570    -1.3770 ha         1 K1Y       0.113000
     24 H7          -0.5240     1.5590     0.3550 hn         1 K1Y       0.349500
     25 H8          -4.5610     2.4620    -0.7560 h1         1 K1Y       0.054033
     26 H9          -4.6960     2.1790     0.9960 h1         1 K1Y       0.054033
     27 H10         -4.1280     3.7470     0.3890 h1         1 K1Y       0.054033
     28 H11          0.9270     1.6350    -1.4260 ha         1 K1Y       0.120500
     29 H12          4.8010     2.8010    -0.0520 ha         1 K1Y       0.113000
@<TRIPOS>BOND
     1     1     3 1   
     2     1    14 2   
     3     2    14 1   
     4     2    18 1   
     5     2    19 1   
     6     2    20 1   
     7     3     4 1   
     8     3    13 2   
     9     4     5 ar  
    10     4    12 ar  
    11     5     6 ar  
    12     5    21 1   
    13     6    15 ar  
    14     6    22 1   
    15     7    12 ar  
    16     7    15 ar  
    17     7    23 1   
    18     8    11 1   
    19     8    13 1   
    20     8    24 1   
    21     9    10 1   
    22     9    25 1   
    23     9    26 1   
    24     9    27 1   
    25    10    11 1   
    26    11    16 2   
    27    12    28 1   
    28    13    17 1   
    29    14    17 1   
    30    15    29 1   
@<TRIPOS>SUBSTRUCTURE
     1 K1Y         1 TEMP              0 ****  ****    0 ROOT
