@<TRIPOS>MOLECULE
K1Y
   29    30     1     0     0
SMALL
No Charge or Current Charge


@<TRIPOS>ATOM
      1 N1           1.1670    -2.2260    -0.1500 nc         1 K1Y      -0.617000
      2 C4           0.1760    -4.4800    -0.2230 c3         1 K1Y      -0.126400
      3 C5           0.7860    -0.9100    -0.1250 cc         1 K1Y       0.274500
      4 C6           1.7680     0.1790    -0.0510 ca         1 K1Y      -0.110500
      5 C7           2.8520     0.0910     0.8470 ca         1 K1Y      -0.097000
      6 C8           3.8200     1.1090     0.9010 ca         1 K1Y      -0.113000
      7 C10          2.6700     2.2970    -0.8800 ca         1 K1Y      -0.113000
      8 N           -1.1280     0.6290     0.0380 ns         1 K1Y      -0.368100
      9 C           -3.8140     2.9630     0.2830 c3         1 K1Y       0.170900
     10 O           -2.5110     2.3520     0.2240 os         1 K1Y      -0.445100
     11 C1          -2.4490     0.9990     0.0710 c          1 K1Y       0.638100
     12 C11          1.7010     1.2800    -0.9340 ca         1 K1Y      -0.097000
     13 C2          -0.5710    -0.6450    -0.0950 cd         1 K1Y      -0.067400
     14 C3           0.0780    -2.9820    -0.1850 cd         1 K1Y       0.402700
     15 C9           3.7260     2.2160     0.0420 ca         1 K1Y      -0.107000
     16 O1          -3.4120     0.2530    -0.0220 o          1 K1Y      -0.518000
     17 S           -1.4780    -2.1500    -0.1720 ss         1 K1Y       0.034600
     18 H1           0.6790    -4.8610     0.6730 hc         1 K1Y       0.056700
     19 H2          -0.8170    -4.9410    -0.2740 hc         1 K1Y       0.056700
     20 H3           0.7460    -4.8110    -1.0990 hc         1 K1Y       0.056700
     21 H4           2.9380    -0.7650     1.5140 ha         1 K1Y       0.120500
     22 H5           4.6440     1.0380     1.6070 ha         1 K1Y       0.113000
     23 H6           2.6070     3.1440    -1.5600 ha         1 K1Y       0.113000
     24 H7          -0.5080     1.4230     0.1350 hn         1 K1Y       0.349500
     25 H8          -4.3780     2.7730    -0.6390 h1         1 K1Y       0.054033
     26 H9          -4.3920     2.5720     1.1310 h1         1 K1Y       0.054033
     27 H10         -3.7220     4.0490     0.4070 h1         1 K1Y       0.054033
     28 H11          0.9070     1.3430    -1.6750 ha         1 K1Y       0.120500
     29 H12          4.4770     3.0030     0.0820 ha         1 K1Y       0.113000
@<TRIPOS>BOND
     1     1     3 1   
     2     1    14 2   
     3     2    14 1   
     4     2    18 1   
     5     2    19 1   
     6     2    20 1   
     7     3     4 1   
     8     3    13 2   
     9     4     5 ar  
    10     4    12 ar  
    11     5     6 ar  
    12     5    21 1   
    13     6    15 ar  
    14     6    22 1   
    15     7    12 ar  
    16     7    15 ar  
    17     7    23 1   
    18     8    11 1   
    19     8    13 1   
    20     8    24 1   
    21     9    10 1   
    22     9    25 1   
    23     9    26 1   
    24     9    27 1   
    25    10    11 1   
    26    11    16 2   
    27    12    28 1   
    28    13    17 1   
    29    14    17 1   
    30    15    29 1   
@<TRIPOS>SUBSTRUCTURE
     1 K1Y         1 TEMP              0 ****  ****    0 ROOT
