@<TRIPOS>MOLECULE
K20
   79    83     1     0     0
SMALL
abcg2


@<TRIPOS>ATOM
      1 C1          15.2070    36.2810    18.5860 c5         1 K20       0.371600
      2 O1          14.4600    35.0760    18.3300 os         1 K20      -0.342100
      3 C2          15.2240    34.3280    17.4860 ca         1 K20       0.110100
      4 O2          16.2660    36.3250    17.6130 os         1 K20      -0.344100
      5 C3          16.3160    35.0780    17.0550 ca         1 K20       0.033100
      6 C4          17.2350    34.5830    16.1670 ca         1 K20      -0.009000
      7 C5          17.0130    33.2670    15.7160 ca         1 K20      -0.322500
      8 C6          15.9260    32.5120    16.1420 ca         1 K20      -0.005000
      9 C7          14.9990    33.0440    17.0460 ca         1 K20      -0.121000
     10 S8          18.2040    32.5350    14.6350 sy         1 K20       1.195600
     11 O9          17.5690    31.4250    13.9630 o          1 K20      -0.541000
     12 O10         18.7960    33.5900    13.8460 o          1 K20      -0.541000
     13 N11         19.4010    31.9100    15.5760 n3         1 K20      -0.745500
     14 C12         20.2860    32.8850    16.2460 c3         1 K20       0.205800
     15 C13         21.7480    32.4370    16.3050 c3         1 K20      -0.059700
     16 C14         22.3300    32.2230    14.9090 c3         1 K20      -0.089100
     17 C15         22.5690    33.4310    17.1460 c3         1 K20      -0.075400
     18 C16         19.0840    30.6960    16.3430 c3         1 K20       0.212800
     19 C17         19.9450    29.4970    15.9410 c3         1 K20       0.154300
     20 C18         22.6730    34.8510    16.5870 c3         1 K20      -0.091100
     21 O18         19.7190    28.5130    16.9520 oh         1 K20      -0.672000
     22 C19         19.6580    28.9720    14.5250 c3         1 K20       0.098700
     23 N20         20.7390    28.1020    14.0860 ns         1 K20      -0.502900
     24 C21         21.5550    28.4120    13.0610 c          1 K20       0.635100
     25 O22         21.5550    29.4630    12.4390 o          1 K20      -0.538000
     26 O23         22.4030    27.3840    12.8110 os         1 K20      -0.460100
     27 C24         23.2770    27.5050    11.6720 c5         1 K20       0.160300
     28 C25         24.5110    26.6700    11.9550 c5         1 K20       0.152600
     29 O26         24.1600    25.3370    11.5800 os         1 K20      -0.467000
     30 C27         23.3270    25.4100    10.4190 c5         1 K20       0.368300
     31 O28         22.2930    24.4690    10.4970 os         1 K20      -0.447000
     32 C29         21.1070    25.1250    10.9950 c5         1 K20       0.151600
     33 C30         21.1840    26.5330    10.4150 c5         1 K20      -0.094400
     34 C31         22.6900    26.8250    10.4180 c5         1 K20      -0.141700
     35 C32         18.3120    28.2470    14.4020 c3         1 K20      -0.037100
     36 C33         17.9850    26.3810    12.7360 ca         1 K20      -0.101500
     37 C34         17.7340    25.9130    11.4500 ca         1 K20      -0.116000
     38 C35         17.5470    26.8100    10.4050 ca         1 K20      -0.115000
     39 C36         17.6110    28.1780    10.6580 ca         1 K20      -0.116000
     40 C37         17.8550    28.6420    11.9460 ca         1 K20      -0.101500
     41 C38         18.0430    27.7490    13.0040 ca         1 K20      -0.086300
     42 H1          14.5580    37.1430    18.4570 h2         1 K20       0.074700
     43 H1A         15.6370    36.2310    19.5890 h2         1 K20       0.074700
     44 H4          18.0710    35.1720    15.8190 ha         1 K20       0.153000
     45 H6          15.7880    31.5100    15.7630 ha         1 K20       0.141000
     46 H7          14.1440    32.4730    17.3770 ha         1 K20       0.142000
     47 H12         20.2250    33.8160    15.6910 h1         1 K20       0.053700
     48 H12A        19.9100    33.0670    17.2590 h1         1 K20       0.053700
     49 H13         21.7900    31.4870    16.8440 hc         1 K20       0.043700
     50 H14         23.3780    31.9230    14.9730 hc         1 K20       0.044700
     51 H14A        21.7900    31.4460    14.3670 hc         1 K20       0.044700
     52 H14B        22.2750    33.1360    14.3130 hc         1 K20       0.044700
     53 H15         22.1380    33.4720    18.1510 hc         1 K20       0.038700
     54 H15A        23.5750    33.0180    17.2600 hc         1 K20       0.038700
     55 H16         19.2620    30.9010    17.4000 h1         1 K20       0.062200
     56 H16A        18.0310    30.4440    16.2370 h1         1 K20       0.062200
     57 H17         20.9930    29.7980    15.9570 h1         1 K20       0.056700
     58 H18         23.2870    35.4700    17.2440 hc         1 K20       0.035033
     59 H18A        23.1340    34.8630    15.5980 hc         1 K20       0.035033
     60 H18B        21.6950    35.3300    16.5070 hc         1 K20       0.035033
     61 HO18        20.3990    27.8320    16.8840 ho         1 K20       0.450000
     62 H19         19.6710    29.8290    13.8560 h1         1 K20       0.104700
     63 HN20        20.7870    27.1610    14.4440 hn         1 K20       0.322500
     64 H24         23.5000    28.5550    11.5120 h1         1 K20       0.088700
     65 H25         25.3510    27.0330    11.3510 h1         1 K20       0.062200
     66 H25A        24.7950    26.6720    13.0060 h1         1 K20       0.062200
     67 H27         23.9260    25.1730     9.5370 h2         1 K20       0.082700
     68 H29         20.2500    24.5510    10.6530 h1         1 K20       0.056700
     69 H29A        21.1170    25.1400    12.0880 h1         1 K20       0.056700
     70 H30         20.8150    26.5320     9.3890 hc         1 K20       0.066200
     71 H30A        20.5950    27.2510    10.9790 hc         1 K20       0.066200
     72 H31         22.9960    27.3900     9.5400 hc         1 K20       0.077700
     73 H32         18.2950    27.4070    15.0970 hc         1 K20       0.062200
     74 H32A        17.5240    28.9370    14.7060 hc         1 K20       0.062200
     75 H34         17.6940    24.8470    11.2630 ha         1 K20       0.112500
     76 H35         17.3590    26.4490     9.4020 ha         1 K20       0.111000
     77 H36         17.4690    28.8860     9.8500 ha         1 K20       0.112500
     78 H37         17.8970    29.7070    12.1370 ha         1 K20       0.123000
     79 H33         18.1390    25.6760    13.5450 ha         1 K20       0.123000
@<TRIPOS>BOND
     1     1     2 1   
     2     1     4 1   
     3     1    42 1   
     4     1    43 1   
     5     2     3 1   
     6     3     5 ar  
     7     3     9 ar  
     8     4     5 1   
     9     5     6 ar  
    10     6     7 ar  
    11     6    44 1   
    12     7     8 ar  
    13     7    10 1   
    14     8     9 ar  
    15     8    45 1   
    16     9    46 1   
    17    10    11 2   
    18    10    12 2   
    19    10    13 1   
    20    13    14 1   
    21    13    18 1   
    22    14    15 1   
    23    14    47 1   
    24    14    48 1   
    25    15    16 1   
    26    15    17 1   
    27    15    49 1   
    28    16    50 1   
    29    16    51 1   
    30    16    52 1   
    31    17    20 1   
    32    17    53 1   
    33    17    54 1   
    34    18    19 1   
    35    18    55 1   
    36    18    56 1   
    37    19    21 1   
    38    19    22 1   
    39    19    57 1   
    40    20    58 1   
    41    20    59 1   
    42    20    60 1   
    43    21    61 1   
    44    22    23 1   
    45    22    35 1   
    46    22    62 1   
    47    23    24 1   
    48    23    63 1   
    49    24    25 2   
    50    24    26 1   
    51    26    27 1   
    52    27    28 1   
    53    27    34 1   
    54    27    64 1   
    55    28    29 1   
    56    28    65 1   
    57    28    66 1   
    58    29    30 1   
    59    30    31 1   
    60    30    34 1   
    61    30    67 1   
    62    31    32 1   
    63    32    33 1   
    64    32    68 1   
    65    32    69 1   
    66    33    34 1   
    67    33    70 1   
    68    33    71 1   
    69    34    72 1   
    70    35    41 1   
    71    35    73 1   
    72    35    74 1   
    73    36    37 ar  
    74    36    41 ar  
    75    36    79 1   
    76    37    38 ar  
    77    37    75 1   
    78    38    39 ar  
    79    38    76 1   
    80    39    40 ar  
    81    39    77 1   
    82    40    41 ar  
    83    40    78 1   
@<TRIPOS>SUBSTRUCTURE
     1 K20         1 TEMP              0 ****  ****    0 ROOT
