@<TRIPOS>MOLECULE
K20
   79    83     1     0     0
SMALL
No Charge or Current Charge


@<TRIPOS>ATOM
      1 C1          15.5040    36.2610    19.0540 c5         1 K20       0.371600
      2 O1          14.8140    34.9610    19.0050 os         1 K20      -0.342100
      3 C2          15.4480    34.3240    17.9880 ca         1 K20       0.110100
      4 O2          16.4620    36.3480    17.9390 os         1 K20      -0.344100
      5 C3          16.3840    35.1120    17.3810 ca         1 K20       0.033100
      6 C4          17.1440    34.6510    16.2980 ca         1 K20      -0.009000
      7 C5          16.9250    33.3270    15.8450 ca         1 K20      -0.322500
      8 C6          15.9440    32.5140    16.4740 ca         1 K20      -0.005000
      9 C7          15.1950    33.0170    17.5590 ca         1 K20      -0.121000
     10 S8          17.8840    32.6840    14.4630 sy         1 K20       1.195600
     11 O9          17.1840    31.5480    13.8560 o          1 K20      -0.541000
     12 O10         18.3560    33.7950    13.6290 o          1 K20      -0.541000
     13 N11         19.2670    32.0380    15.2320 n3         1 K20      -0.745500
     14 C12         20.1100    33.0710    15.8960 c3         1 K20       0.205800
     15 C13         21.5670    32.6540    16.2380 c3         1 K20      -0.059700
     16 C14         22.3840    32.3090    14.9670 c3         1 K20      -0.089100
     17 C15         22.2860    33.7070    17.1290 c3         1 K20      -0.075400
     18 C16         18.9900    30.8460    16.0890 c3         1 K20       0.212800
     19 C17         19.8820    29.6020    15.7890 c3         1 K20       0.154300
     20 C18         22.4750    35.1070    16.5010 c3         1 K20      -0.091100
     21 O18         19.7240    28.6200    16.8350 oh         1 K20      -0.672000
     22 C19         19.6180    28.9610    14.3900 c3         1 K20       0.098700
     23 N20         20.6880    28.0200    14.0250 ns         1 K20      -0.502900
     24 C21         21.6900    28.2850    13.1380 c          1 K20       0.635100
     25 O22         21.8790    29.3610    12.5930 o          1 K20      -0.538000
     26 O23         22.3880    27.1300    12.9270 os         1 K20      -0.460100
     27 C24         23.4270    27.2100    11.9070 c5         1 K20       0.160300
     28 C25         24.4690    26.1050    12.2310 c5         1 K20       0.152600
     29 O26         23.9100    24.9180    11.6430 os         1 K20      -0.467000
     30 C27         23.4110    25.2860    10.3470 c5         1 K20       0.368300
     31 O28         22.2300    24.5030    10.0930 os         1 K20      -0.447000
     32 C29         21.1370    25.1650    10.7550 c5         1 K20       0.151600
     33 C30         21.3590    26.6370    10.3420 c5         1 K20      -0.094400
     34 C31         22.9220    26.7690    10.4720 c5         1 K20      -0.141700
     35 C32         18.2360    28.2690    14.2290 c3         1 K20      -0.037100
     36 C33         17.8970    26.2870    12.6610 ca         1 K20      -0.101500
     37 C34         17.7100    25.7470    11.3760 ca         1 K20      -0.116000
     38 C35         17.6600    26.5950    10.2570 ca         1 K20      -0.115000
     39 C36         17.7900    27.9830    10.4240 ca         1 K20      -0.116000
     40 C37         17.9710    28.5240    11.7090 ca         1 K20      -0.101500
     41 C38         18.0290    27.6790    12.8350 ca         1 K20      -0.086300
     42 H1          14.7700    37.0710    18.9750 h2         1 K20       0.074700
     43 H1A         16.0500    36.3410    20.0020 h2         1 K20       0.074700
     44 H4          17.8790    35.3040    15.8310 ha         1 K20       0.153000
     45 H6          15.7560    31.4990    16.1250 ha         1 K20       0.141000
     46 H7          14.4400    32.4070    18.0490 ha         1 K20       0.142000
     47 H12         20.1880    33.9590    15.2550 h1         1 K20       0.053700
     48 H12A        19.6200    33.4000    16.8230 h1         1 K20       0.053700
     49 H13         21.5200    31.7490    16.8520 hc         1 K20       0.043700
     50 H14         23.4010    31.9940    15.2310 hc         1 K20       0.044700
     51 H14A        21.9140    31.4920    14.4090 hc         1 K20       0.044700
     52 H14B        22.4540    33.1710    14.2930 hc         1 K20       0.044700
     53 H15         21.7240    33.8200    18.0650 hc         1 K20       0.038700
     54 H15A        23.2710    33.3170    17.4120 hc         1 K20       0.038700
     55 H16         19.1240    31.1130    17.1460 h1         1 K20       0.062200
     56 H16A        17.9460    30.5230    16.0090 h1         1 K20       0.062200
     57 H17         20.9230    29.9420    15.7860 h1         1 K20       0.056700
     58 H18         22.9920    35.7680    17.2070 hc         1 K20       0.035033
     59 H18A        23.0780    35.0560    15.5880 hc         1 K20       0.035033
     60 H18B        21.5100    35.5680    16.2580 hc         1 K20       0.035033
     61 HO18        20.4390    27.9560    16.7140 ho         1 K20       0.450000
     62 H19         19.6440    29.7880    13.6660 h1         1 K20       0.104700
     63 HN20        20.6300    27.0620    14.3420 hn         1 K20       0.322500
     64 H24         23.9080    28.1990    11.9150 h1         1 K20       0.088700
     65 H25         25.4390    26.3190    11.7600 h1         1 K20       0.062200
     66 H25A        24.6220    25.9610    13.3080 h1         1 K20       0.062200
     67 H27         24.1750    25.1480     9.5700 h2         1 K20       0.082700
     68 H29         20.1800    24.7590    10.4020 h1         1 K20       0.056700
     69 H29A        21.2130    25.0150    11.8400 h1         1 K20       0.056700
     70 H30         21.0480    26.7790     9.3010 hc         1 K20       0.066200
     71 H30A        20.7710    27.3460    10.9290 hc         1 K20       0.066200
     72 H31         23.3500    27.4020     9.6860 hc         1 K20       0.077700
     73 H32         18.1350    27.4840    14.9870 hc         1 K20       0.062200
     74 H32A        17.4350    28.9860    14.4360 hc         1 K20       0.062200
     75 H34         17.6070    24.6720    11.2480 ha         1 K20       0.112500
     76 H35         17.5190    26.1760     9.2620 ha         1 K20       0.111000
     77 H36         17.7490    28.6410     9.5580 ha         1 K20       0.112500
     78 H37         18.0660    29.6010    11.8280 ha         1 K20       0.123000
     79 H33         17.9390    25.6200    13.5190 ha         1 K20       0.123000
@<TRIPOS>BOND
     1     1     2 1   
     2     1     4 1   
     3     1    42 1   
     4     1    43 1   
     5     2     3 1   
     6     3     5 ar  
     7     3     9 ar  
     8     4     5 1   
     9     5     6 ar  
    10     6     7 ar  
    11     6    44 1   
    12     7     8 ar  
    13     7    10 1   
    14     8     9 ar  
    15     8    45 1   
    16     9    46 1   
    17    10    11 2   
    18    10    12 2   
    19    10    13 1   
    20    13    14 1   
    21    13    18 1   
    22    14    15 1   
    23    14    47 1   
    24    14    48 1   
    25    15    16 1   
    26    15    17 1   
    27    15    49 1   
    28    16    50 1   
    29    16    51 1   
    30    16    52 1   
    31    17    20 1   
    32    17    53 1   
    33    17    54 1   
    34    18    19 1   
    35    18    55 1   
    36    18    56 1   
    37    19    21 1   
    38    19    22 1   
    39    19    57 1   
    40    20    58 1   
    41    20    59 1   
    42    20    60 1   
    43    21    61 1   
    44    22    23 1   
    45    22    35 1   
    46    22    62 1   
    47    23    24 1   
    48    23    63 1   
    49    24    25 2   
    50    24    26 1   
    51    26    27 1   
    52    27    28 1   
    53    27    34 1   
    54    27    64 1   
    55    28    29 1   
    56    28    65 1   
    57    28    66 1   
    58    29    30 1   
    59    30    31 1   
    60    30    34 1   
    61    30    67 1   
    62    31    32 1   
    63    32    33 1   
    64    32    68 1   
    65    32    69 1   
    66    33    34 1   
    67    33    70 1   
    68    33    71 1   
    69    34    72 1   
    70    35    41 1   
    71    35    73 1   
    72    35    74 1   
    73    36    37 ar  
    74    36    41 ar  
    75    36    79 1   
    76    37    38 ar  
    77    37    75 1   
    78    38    39 ar  
    79    38    76 1   
    80    39    40 ar  
    81    39    77 1   
    82    40    41 ar  
    83    40    78 1   
@<TRIPOS>SUBSTRUCTURE
     1 K20         1 TEMP              0 ****  ****    0 ROOT
