@<TRIPOS>MOLECULE
K21
   62    65     1     0     0
SMALL
abcg2


@<TRIPOS>ATOM
      1 C1           1.3140    -1.5180    -5.4650 ca         1 K21       0.155100
      2 C2           0.0330    -1.2160    -4.9960 ca         1 K21      -0.122000
      3 C3          -0.3140     0.0730    -4.6350 ca         1 K21      -0.045300
      4 C4           0.6500     1.0900    -4.7120 ca         1 K21      -0.144000
      5 C5           1.9250     0.7830    -5.1650 ca         1 K21      -0.037000
      6 C6           2.2660    -0.5080    -5.5500 ca         1 K21      -0.204000
      7 C10         -1.7080     0.3730    -4.1540 c3         1 K21       0.138300
      8 N11         -1.7480     0.7370    -2.7460 n          1 K21      -0.410800
      9 C12         -1.6750     2.1490    -2.4320 c3         1 K21       0.106000
     10 C13         -0.2910     2.7460    -2.6330 c3         1 K21       0.022600
     11 S14          0.2680     2.7820    -4.3620 ss         1 K21      -0.206000
     12 C21         -1.6570    -0.2550    -1.8260 c          1 K21       0.602100
     13 C22         -1.6040     0.1440    -0.3650 c3         1 K21      -0.155400
     14 O23         -1.6340    -1.4300    -2.1640 o          1 K21      -0.597100
     15 C24         -1.5270    -1.0600     0.5620 c3         1 K21       0.176800
     16 N27         -1.5420    -0.6670     1.9600 n3         1 K21      -0.726600
     17 C30         -1.9600    -1.7700     2.8090 c6         1 K21       0.167800
     18 C31         -2.0790    -1.3400     4.2620 c6         1 K21      -0.074400
     19 C32         -0.7610    -0.7720     4.7770 c6         1 K21      -0.058700
     20 C33         -0.3100     0.3400     3.8380 c6         1 K21      -0.074400
     21 C34         -0.2600    -0.1410     2.3960 c6         1 K21       0.167800
     22 C43         -0.8860    -0.3080     6.2320 c3         1 K21      -0.027100
     23 C45          0.7240     1.4720     7.0240 ca         1 K21      -0.108500
     24 C48          1.9480     1.8630     7.5530 ca         1 K21      -0.109500
     25 C49          2.8960     0.9090     7.8970 ca         1 K21      -0.113000
     26 C50          2.6080    -0.4380     7.7110 ca         1 K21      -0.109500
     27 C51          1.3840    -0.8220     7.1830 ca         1 K21      -0.108500
     28 C52          0.4230     0.1260     6.8300 ca         1 K21      -0.076300
     29 O58          1.5340    -2.8020    -5.8000 os         1 K21      -0.336100
     30 C59          2.8210    -3.1690    -6.2570 c3         1 K21       0.147900
     31 H2          -0.7010    -2.0080    -4.9230 ha         1 K21       0.141000
     32 H5           2.6750     1.5610    -5.2220 ha         1 K21       0.123000
     33 H6           3.2720    -0.6990    -5.8980 ha         1 K21       0.119000
     34 H101        -2.3610    -0.4800    -4.3320 h1         1 K21       0.072200
     35 H102        -2.1150     1.2130    -4.7210 h1         1 K21       0.072200
     36 H121        -1.9830     2.3170    -1.4020 h1         1 K21       0.059200
     37 H122        -2.3940     2.6790    -3.0580 h1         1 K21       0.059200
     38 H131         0.4580     2.2380    -2.0230 h1         1 K21       0.077200
     39 H132        -0.3090     3.7940    -2.3270 h1         1 K21       0.077200
     40 H221        -0.7510     0.8110    -0.2130 hc         1 K21       0.064700
     41 H222        -2.4910     0.7290    -0.1070 hc         1 K21       0.064700
     42 H241        -2.3970    -1.6950     0.3830 h1         1 K21       0.048200
     43 H242        -0.6440    -1.6740     0.3250 h1         1 K21       0.048200
     44 H301        -2.9250    -2.1370     2.4530 h1         1 K21       0.030200
     45 H302        -1.2540    -2.6200     2.7460 h1         1 K21       0.030200
     46 H311        -2.8650    -0.5820     4.3530 hc         1 K21       0.047450
     47 H312        -2.3900    -2.1960     4.8660 hc         1 K21       0.047450
     48 H32         -0.0140    -1.5760     4.7390 hc         1 K21       0.047700
     49 H331        -1.0090     1.1810     3.9080 hc         1 K21       0.047450
     50 H332         0.6750     0.7170     4.1220 hc         1 K21       0.047450
     51 H341         0.5340    -0.9030     2.2910 h1         1 K21       0.030200
     52 H342         0.0280     0.6950     1.7540 h1         1 K21       0.030200
     53 H431        -1.6090     0.5110     6.2880 hc         1 K21       0.047700
     54 H432        -1.3010    -1.1300     6.8250 hc         1 K21       0.047700
     55 H48          2.1610     2.9150     7.6960 ha         1 K21       0.111000
     56 H49          3.8490     1.2120     8.3110 ha         1 K21       0.111000
     57 H50          3.3380    -1.1900     7.9820 ha         1 K21       0.111000
     58 H51          1.1670    -1.8750     7.0480 ha         1 K21       0.110000
     59 H591         2.7820    -4.2340    -6.4670 h1         1 K21       0.041700
     60 H592         3.0950    -2.6390    -7.1730 h1         1 K21       0.041700
     61 H593         3.5890    -2.9850    -5.5010 h1         1 K21       0.041700
     62 H45         -0.0110     2.2260     6.7640 ha         1 K21       0.110000
@<TRIPOS>BOND
     1     1     2 ar  
     2     1     6 ar  
     3     1    29 1   
     4     2     3 ar  
     5     2    31 1   
     6     3     4 ar  
     7     3     7 1   
     8     4     5 ar  
     9     4    11 1   
    10     5     6 ar  
    11     5    32 1   
    12     6    33 1   
    13     7     8 1   
    14     7    34 1   
    15     7    35 1   
    16     8     9 1   
    17     8    12 1   
    18     9    10 1   
    19     9    36 1   
    20     9    37 1   
    21    10    11 1   
    22    10    38 1   
    23    10    39 1   
    24    12    13 1   
    25    12    14 2   
    26    13    15 1   
    27    13    40 1   
    28    13    41 1   
    29    15    16 1   
    30    15    42 1   
    31    15    43 1   
    32    16    17 1   
    33    16    21 1   
    34    17    18 1   
    35    17    44 1   
    36    17    45 1   
    37    18    19 1   
    38    18    46 1   
    39    18    47 1   
    40    19    20 1   
    41    19    22 1   
    42    19    48 1   
    43    20    21 1   
    44    20    49 1   
    45    20    50 1   
    46    21    51 1   
    47    21    52 1   
    48    22    28 1   
    49    22    53 1   
    50    22    54 1   
    51    23    24 ar  
    52    23    28 ar  
    53    23    62 1   
    54    24    25 ar  
    55    24    55 1   
    56    25    26 ar  
    57    25    56 1   
    58    26    27 ar  
    59    26    57 1   
    60    27    28 ar  
    61    27    58 1   
    62    29    30 1   
    63    30    59 1   
    64    30    60 1   
    65    30    61 1   
@<TRIPOS>SUBSTRUCTURE
     1 K21         1 TEMP              0 ****  ****    0 ROOT
