@<TRIPOS>MOLECULE
K21
   62    65     1     0     0
SMALL
No Charge or Current Charge


@<TRIPOS>ATOM
      1 C1           1.1970    -1.5600    -5.6740 ca         1 K21       0.155100
      2 C2          -0.0510    -1.1600    -5.1690 ca         1 K21      -0.122000
      3 C3          -0.2790     0.1720    -4.7710 ca         1 K21      -0.045300
      4 C4           0.7710     1.1130    -4.8750 ca         1 K21      -0.144000
      5 C5           2.0180     0.7170    -5.3900 ca         1 K21      -0.037000
      6 C6           2.2350    -0.6130    -5.7880 ca         1 K21      -0.204000
      7 C10         -1.6510     0.5700    -4.2410 c3         1 K21       0.138300
      8 N11         -1.6320     0.8710    -2.7940 n          1 K21      -0.410800
      9 C12         -1.4020     2.2900    -2.4240 c3         1 K21       0.106000
     10 C13          0.0630     2.7390    -2.6020 c3         1 K21       0.022600
     11 S14          0.5640     2.8250    -4.3840 ss         1 K21      -0.206000
     12 C21         -1.7190    -0.1800    -1.8470 c          1 K21       0.602100
     13 C22         -1.5920     0.1450    -0.3490 c3         1 K21      -0.155400
     14 O23         -1.8960    -1.3340    -2.2200 o          1 K21      -0.597100
     15 C24         -1.5910    -1.0880     0.5770 c3         1 K21       0.176800
     16 N27         -1.5910    -0.7650     2.0270 n3         1 K21      -0.726600
     17 C30         -1.8550    -1.9740     2.8560 c6         1 K21       0.167800
     18 C31         -1.9890    -1.6260     4.3590 c6         1 K21      -0.074400
     19 C32         -0.7230    -0.8990     4.8800 c6         1 K21      -0.058700
     20 C33         -0.4370     0.3320     3.9810 c6         1 K21      -0.074400
     21 C34         -0.3540    -0.0660     2.4870 c6         1 K21       0.167800
     22 C43         -0.8600    -0.5180     6.3840 c3         1 K21      -0.027100
     23 C45          0.4420     1.4920     7.2540 ca         1 K21      -0.108500
     24 C48          1.6050     2.0690     7.7940 ca         1 K21      -0.109500
     25 C49          2.7290     1.2700     8.0590 ca         1 K21      -0.113000
     26 C50          2.6900    -0.1070     7.7850 ca         1 K21      -0.109500
     27 C51          1.5280    -0.6850     7.2450 ca         1 K21      -0.108500
     28 C52          0.3970     0.1110     6.9760 ca         1 K21      -0.076300
     29 O58          1.3510    -2.8800    -6.0460 os         1 K21      -0.336100
     30 C59          2.5880    -3.3890    -6.5740 c3         1 K21       0.147900
     31 H2          -0.8460    -1.8960    -5.0860 ha         1 K21       0.141000
     32 H5           2.8230     1.4430    -5.4780 ha         1 K21       0.123000
     33 H6           3.2110    -0.8860    -6.1780 ha         1 K21       0.119000
     34 H101        -2.3770    -0.2290    -4.4400 h1         1 K21       0.072200
     35 H102        -2.0040     1.4510    -4.7940 h1         1 K21       0.072200
     36 H121        -1.7090     2.4800    -1.3900 h1         1 K21       0.059200
     37 H122        -2.0410     2.9260    -3.0510 h1         1 K21       0.059200
     38 H131         0.7360     2.0580    -2.0650 h1         1 K21       0.077200
     39 H132         0.1760     3.7410    -2.1710 h1         1 K21       0.077200
     40 H221        -0.7010     0.7660    -0.2180 hc         1 K21       0.064700
     41 H222        -2.3990     0.8350    -0.0840 hc         1 K21       0.064700
     42 H241        -2.4880    -1.6770     0.3430 h1         1 K21       0.048200
     43 H242        -0.7230    -1.7170     0.3310 h1         1 K21       0.048200
     44 H301        -2.7850    -2.4630     2.5290 h1         1 K21       0.030200
     45 H302        -1.0440    -2.7070     2.7290 h1         1 K21       0.030200
     46 H311        -2.8750    -0.9940     4.5080 hc         1 K21       0.047450
     47 H312        -2.1600    -2.5470     4.9330 hc         1 K21       0.047450
     48 H32          0.1280    -1.5910     4.8060 hc         1 K21       0.047700
     49 H331        -1.2260     1.0850     4.1130 hc         1 K21       0.047450
     50 H332         0.5050     0.8110     4.2780 hc         1 K21       0.047450
     51 H341         0.5240    -0.7110     2.3360 h1         1 K21       0.030200
     52 H342        -0.1830     0.8520     1.9070 h1         1 K21       0.030200
     53 H431        -1.7140     0.1590     6.5150 hc         1 K21       0.047700
     54 H432        -1.1110    -1.4150     6.9640 hc         1 K21       0.047700
     55 H48          1.6340     3.1360     8.0050 ha         1 K21       0.111000
     56 H49          3.6290     1.7170     8.4770 ha         1 K21       0.111000
     57 H50          3.5600    -0.7280     7.9900 ha         1 K21       0.111000
     58 H51          1.5050    -1.7520     7.0340 ha         1 K21       0.110000
     59 H591         2.4930    -4.4580    -6.8010 h1         1 K21       0.041700
     60 H592         2.8610    -2.8670    -7.5000 h1         1 K21       0.041700
     61 H593         3.4020    -3.2670    -5.8470 h1         1 K21       0.041700
     62 H45         -0.4220     2.1200     7.0490 ha         1 K21       0.110000
@<TRIPOS>BOND
     1     1     2 ar  
     2     1     6 ar  
     3     1    29 1   
     4     2     3 ar  
     5     2    31 1   
     6     3     4 ar  
     7     3     7 1   
     8     4     5 ar  
     9     4    11 1   
    10     5     6 ar  
    11     5    32 1   
    12     6    33 1   
    13     7     8 1   
    14     7    34 1   
    15     7    35 1   
    16     8     9 1   
    17     8    12 1   
    18     9    10 1   
    19     9    36 1   
    20     9    37 1   
    21    10    11 1   
    22    10    38 1   
    23    10    39 1   
    24    12    13 1   
    25    12    14 2   
    26    13    15 1   
    27    13    40 1   
    28    13    41 1   
    29    15    16 1   
    30    15    42 1   
    31    15    43 1   
    32    16    17 1   
    33    16    21 1   
    34    17    18 1   
    35    17    44 1   
    36    17    45 1   
    37    18    19 1   
    38    18    46 1   
    39    18    47 1   
    40    19    20 1   
    41    19    22 1   
    42    19    48 1   
    43    20    21 1   
    44    20    49 1   
    45    20    50 1   
    46    21    51 1   
    47    21    52 1   
    48    22    28 1   
    49    22    53 1   
    50    22    54 1   
    51    23    24 ar  
    52    23    28 ar  
    53    23    62 1   
    54    24    25 ar  
    55    24    55 1   
    56    25    26 ar  
    57    25    56 1   
    58    26    27 ar  
    59    26    57 1   
    60    27    28 ar  
    61    27    58 1   
    62    29    30 1   
    63    30    59 1   
    64    30    60 1   
    65    30    61 1   
@<TRIPOS>SUBSTRUCTURE
     1 K21         1 TEMP              0 ****  ****    0 ROOT
