@<TRIPOS>MOLECULE
K22
   16    17     1     0     0
SMALL
bcc


@<TRIPOS>ATOM
      1 BR1         -0.0620     0.2070     3.0280 br         1 K22      -0.025100
      2 C5           0.9780    -0.7150     1.7850 ca         1 K22      -0.002900
      3 C2           0.7710    -0.6440     0.4060 ca         1 K22       0.014600
      4 BR2         -0.6150     0.4270    -0.2480 br         1 K22      -0.015100
      5 C7           2.0100    -1.5100     2.2440 ca         1 K22       0.016100
      6 N14          2.4670    -1.7910     3.5030 ns         1 K22      -0.366600
      7 C13          3.5250    -2.6430     3.4560 cs         1 K22       0.536400
      8 S10          4.3830    -3.2450     4.7370 s          1 K22      -0.543400
      9 N6           3.7290    -2.8970     2.1380 ns         1 K22      -0.366600
     10 C8           2.8230    -2.2220     1.3640 ca         1 K22       0.016100
     11 C4           2.6290    -2.1630    -0.0020 ca         1 K22      -0.002900
     12 BR4          3.7570    -3.1500    -1.1100 br         1 K22      -0.025100
     13 C3           1.5890    -1.3630    -0.4800 ca         1 K22       0.014600
     14 BR3          1.2990    -1.2610    -2.3240 br         1 K22      -0.015100
     15 H6           4.4640    -3.5030     1.8060 hn         1 K22       0.382500
     16 H14          2.0920    -1.4380     4.3710 hn         1 K22       0.382500
@<TRIPOS>BOND
     1     1     2 1   
     2     2     3 ar  
     3     2     5 ar  
     4     3     4 1   
     5     3    13 ar  
     6     5     6 1   
     7     5    10 ar  
     8     6     7 1   
     9     6    16 1   
    10     7     8 2   
    11     7     9 1   
    12     9    10 1   
    13     9    15 1   
    14    10    11 ar  
    15    11    12 1   
    16    11    13 ar  
    17    13    14 1   
@<TRIPOS>SUBSTRUCTURE
     1 K22         1 TEMP              0 ****  ****    0 ROOT
