@<TRIPOS>MOLECULE
K22
   16    17     1     0     0
SMALL
No Charge or Current Charge


@<TRIPOS>ATOM
      1 Br1         -0.1190     0.2540     3.0560 br         1 K22      -0.025100
      2 C5           0.9630    -0.7030     1.7920 ca         1 K22      -0.002900
      3 C2           0.7480    -0.6270     0.3910 ca         1 K22       0.014600
      4 Br2         -0.6790     0.4710    -0.2890 br         1 K22      -0.015100
      5 C7           2.0120    -1.5140     2.2340 ca         1 K22       0.016100
      6 N14          2.5080    -1.8230     3.5130 ns         1 K22      -0.413100
      7 C13          3.5740    -2.6770     3.5300 cs         1 K22       0.402400
      8 S10          4.4380    -3.2820     4.8170 s          1 K22      -0.543400
      9 N6           3.7290    -2.8950     2.1900 ns         1 K22      -0.413100
     10 C8           2.8140    -2.2170     1.3660 ca         1 K22       0.016100
     11 C4           2.6360    -2.1710    -0.0190 ca         1 K22      -0.002900
     12 Br4          3.7900    -3.1760    -1.1780 br         1 K22      -0.025100
     13 C3           1.5810    -1.3580    -0.5110 ca         1 K22       0.014600
     14 Br3          1.2780    -1.2460    -2.4080 br         1 K22      -0.015100
     15 H6           4.4570    -3.5040     1.8230 hn         1 K22       0.496000
     16 H14          2.1070    -1.4420     4.3670 hn         1 K22       0.496000
@<TRIPOS>BOND
     1     1     2 1   
     2     2     3 ar  
     3     2     5 ar  
     4     3     4 1   
     5     3    13 ar  
     6     5     6 1   
     7     5    10 ar  
     8     6     7 1   
     9     6    16 1   
    10     7     8 2   
    11     7     9 1   
    12     9    10 1   
    13     9    15 1   
    14    10    11 ar  
    15    11    12 1   
    16    11    13 ar  
    17    13    14 1   
@<TRIPOS>SUBSTRUCTURE
     1 K22         1 TEMP              0 ****  ****    0 ROOT
