@<TRIPOS>MOLECULE
K23
   48    52     1     0     0
SMALL
abcg2


@<TRIPOS>ATOM
      1 C1          -2.5280    -3.3950     0.2240 ca         1 K23       0.113000
      2 CL2         -3.3540    -4.9260     0.2150 cl         1 K23      -0.253000
      3 C3          -2.7880    -2.5030     1.2750 ca         1 K23      -0.151000
      4 C4          -2.1480    -1.2810     1.3140 ca         1 K23      -0.070000
      5 C5          -1.2430    -0.9490     0.3010 ca         1 K23      -0.080800
      6 C6          -1.0080    -1.8730    -0.7400 ca         1 K23      -0.067200
      7 C7          -1.6470    -3.1100    -0.7980 ca         1 K23      -0.115000
      8 N8          -0.0990    -1.3110    -1.5760 na         1 K23      -0.185700
      9 C9           0.2750    -0.0840    -1.1160 cc         1 K23      -0.047300
     10 C10          1.3050     0.7150    -1.8720 c          1 K23       0.717200
     11 O11          1.7650     0.1610    -2.8890 o          1 K23      -0.691000
     12 O12          1.5730     1.8370    -1.4170 o          1 K23      -0.691000
     13 C13         -0.4140     0.1880     0.0450 cd         1 K23      -0.129400
     14 C14         -0.2410     1.3060     0.9600 cd         1 K23      -0.022800
     15 C15         -0.6680     2.6160     0.9920 cc         1 K23       0.297500
     16 C16         -1.4870     3.3650     0.0370 ca         1 K23      -0.070500
     17 C17         -2.0830     4.5650     0.4380 ca         1 K23      -0.087000
     18 C18         -2.8730     5.2990    -0.4340 ca         1 K23      -0.127500
     19 C19         -3.0890     4.8520    -1.7310 ca         1 K23      -0.131000
     20 C20         -2.5000     3.6640    -2.1430 ca         1 K23      -0.127500
     21 C21         -1.7030     2.9320    -1.2740 ca         1 K23      -0.087000
     22 N22         -0.2410     3.2160     2.1480 nc         1 K23      -0.682000
     23 C23          0.4220     2.3040     2.8020 cd         1 K23       0.365400
     24 N24          0.4500     1.1310     2.1370 na         1 K23      -0.170500
     25 C25          1.0600    -0.0960     2.6110 c3         1 K23       0.134900
     26 C26          1.9960    -0.7080     1.6050 ca         1 K23      -0.107300
     27 C27          3.0010     0.0490     1.0140 ca         1 K23      -0.071500
     28 C28          3.8380    -0.5040     0.0610 ca         1 K23      -0.100500
     29 C29          3.6650    -1.8310    -0.3000 ca         1 K23       0.141000
     30 CL30         4.6970    -2.5240    -1.5120 cl         1 K23      -0.224000
     31 C31          2.6840    -2.6120     0.2860 ca         1 K23      -0.100500
     32 C32          1.8530    -2.0400     1.2390 ca         1 K23      -0.071500
     33 H3          -3.4890    -2.7770     2.0510 ha         1 K23       0.110000
     34 H4          -2.3500    -0.5900     2.1230 ha         1 K23       0.114000
     35 H7          -1.4620    -3.8120    -1.6010 ha         1 K23       0.120000
     36 HN8          0.3030    -1.7250    -2.4020 hn         1 K23       0.372000
     37 H17         -1.9280     4.9220     1.4480 ha         1 K23       0.130000
     38 H18         -3.3230     6.2250    -0.0970 ha         1 K23       0.096500
     39 H19         -3.7090     5.4210    -2.4120 ha         1 K23       0.092000
     40 H20         -2.6520     3.3060    -3.1540 ha         1 K23       0.096500
     41 H21         -1.2440     2.0200    -1.6220 ha         1 K23       0.130000
     42 H23          0.9040     2.4320     3.7610 h5         1 K23       0.035100
     43 H25          1.5920     0.1540     3.5300 h1         1 K23       0.050200
     44 H25A         0.2820    -0.8120     2.8810 h1         1 K23       0.050200
     45 H27          3.1250     1.0920     1.2780 ha         1 K23       0.122500
     46 H28          4.6060     0.0970    -0.4060 ha         1 K23       0.127000
     47 H31          2.5510    -3.6450    -0.0040 ha         1 K23       0.127000
     48 H32          1.0690    -2.6410     1.6810 ha         1 K23       0.122500
@<TRIPOS>BOND
     1     1     2 1   
     2     1     3 ar  
     3     1     7 ar  
     4     3     4 ar  
     5     3    33 1   
     6     4     5 ar  
     7     4    34 1   
     8     5     6 ar  
     9     5    13 1   
    10     6     7 ar  
    11     6     8 1   
    12     7    35 1   
    13     8     9 1   
    14     8    36 1   
    15     9    10 1   
    16     9    13 2   
    17    10    11 1   
    18    10    12 1   
    19    13    14 1   
    20    14    15 2   
    21    14    24 1   
    22    15    16 1   
    23    15    22 1   
    24    16    17 ar  
    25    16    21 ar  
    26    17    18 ar  
    27    17    37 1   
    28    18    19 ar  
    29    18    38 1   
    30    19    20 ar  
    31    19    39 1   
    32    20    21 ar  
    33    20    40 1   
    34    21    41 1   
    35    22    23 2   
    36    23    24 1   
    37    23    42 1   
    38    24    25 1   
    39    25    26 1   
    40    25    43 1   
    41    25    44 1   
    42    26    27 ar  
    43    26    32 ar  
    44    27    28 ar  
    45    27    45 1   
    46    28    29 ar  
    47    28    46 1   
    48    29    30 1   
    49    29    31 ar  
    50    31    32 ar  
    51    31    47 1   
    52    32    48 1   
@<TRIPOS>SUBSTRUCTURE
     1 K23         1 TEMP              0 ****  ****    0 ROOT
