@<TRIPOS>MOLECULE
K23
   48    52     1     0     0
SMALL
No Charge or Current Charge


@<TRIPOS>ATOM
      1 C1          -1.7930    -3.6090    -0.4290 ca         1 K23       0.113000
      2 Cl2         -2.3240    -5.2500    -0.7690 cl         1 K23      -0.253000
      3 C3          -1.9560    -3.0740     0.8700 ca         1 K23      -0.151000
      4 C4          -1.5400    -1.7560     1.1550 ca         1 K23      -0.070000
      5 C5          -0.9360    -1.0230     0.1220 ca         1 K23      -0.080800
      6 C6          -0.8270    -1.5240    -1.1430 ca         1 K23      -0.067200
      7 C7          -1.2360    -2.8260    -1.4610 ca         1 K23      -0.115000
      8 N8          -0.3060    -0.5530    -1.9780 na         1 K23      -0.185700
      9 C9          -0.0010     0.6230    -1.2560 cc         1 K23      -0.047300
     10 C10          0.7840     1.7940    -1.7720 c          1 K23       0.717200
     11 O11          1.0140     1.8180    -2.9740 o          1 K23      -0.691000
     12 O12          1.2780     2.6080    -1.0050 o          1 K23      -0.691000
     13 C13         -0.4430     0.3370     0.0510 cd         1 K23      -0.129400
     14 C14         -0.3510     1.2850     1.1430 cd         1 K23      -0.022800
     15 C15         -0.7160     2.6150     1.1420 cc         1 K23       0.297500
     16 C16         -1.4240     3.2910     0.0400 ca         1 K23      -0.070500
     17 C17         -1.1820     4.6590    -0.2120 ca         1 K23      -0.087000
     18 C18         -1.8840     5.3380    -1.2240 ca         1 K23      -0.127500
     19 C19         -2.8550     4.6640    -1.9800 ca         1 K23      -0.131000
     20 C20         -3.1340     3.3140    -1.7140 ca         1 K23      -0.127500
     21 C21         -2.4330     2.6350    -0.7020 ca         1 K23      -0.087000
     22 N22         -0.5020     3.2010     2.3590 nc         1 K23      -0.682000
     23 C23         -0.0120     2.2350     3.1280 cd         1 K23       0.365400
     24 N24          0.0780     1.0270     2.4420 na         1 K23      -0.170500
     25 C25          0.7820    -0.1690     2.9550 c3         1 K23       0.134900
     26 C26          1.7370    -0.8340     1.9640 ca         1 K23      -0.107300
     27 C27          2.6370    -0.0600     1.2010 ca         1 K23      -0.071500
     28 C28          3.4790    -0.6760     0.2590 ca         1 K23      -0.100500
     29 C29          3.4320    -2.0670     0.0790 ca         1 K23       0.141000
     30 Cl30         4.4790    -2.8350    -1.1080 cl         1 K23      -0.224000
     31 C31          2.5520    -2.8460     0.8460 ca         1 K23      -0.100500
     32 C32          1.7100    -2.2330     1.7890 ca         1 K23      -0.071500
     33 H3          -2.4170    -3.6770     1.6490 ha         1 K23       0.110000
     34 H4          -1.7070    -1.3230     2.1360 ha         1 K23       0.114000
     35 H7          -1.1370    -3.2190    -2.4690 ha         1 K23       0.120000
     36 HN8         -0.0960    -0.6840    -2.9620 hn         1 K23       0.372000
     37 H17         -0.4350     5.1930     0.3720 ha         1 K23       0.130000
     38 H18         -1.6760     6.3880    -1.4180 ha         1 K23       0.096500
     39 H19         -3.3990     5.1890    -2.7620 ha         1 K23       0.092000
     40 H20         -3.9000     2.7950    -2.2840 ha         1 K23       0.096500
     41 H21         -2.6870     1.5990    -0.4910 ha         1 K23       0.130000
     42 H23          0.3060     2.3330     4.1600 h5         1 K23       0.035100
     43 H25          1.3670     0.1340     3.8330 h1         1 K23       0.050200
     44 H25A         0.0410    -0.8930     3.3120 h1         1 K23       0.050200
     45 H27          2.6730     1.0200     1.3240 ha         1 K23       0.122500
     46 H28          4.1620    -0.0750    -0.3360 ha         1 K23       0.127000
     47 H31          2.5180    -3.9230     0.7050 ha         1 K23       0.127000
     48 H32          1.0230    -2.8450     2.3700 ha         1 K23       0.122500
@<TRIPOS>BOND
     1     1     2 1   
     2     1     3 ar  
     3     1     7 ar  
     4     3     4 ar  
     5     3    33 1   
     6     4     5 ar  
     7     4    34 1   
     8     5     6 ar  
     9     5    13 1   
    10     6     7 ar  
    11     6     8 1   
    12     7    35 1   
    13     8     9 1   
    14     8    36 1   
    15     9    10 1   
    16     9    13 2   
    17    10    11 1   
    18    10    12 1   
    19    13    14 1   
    20    14    15 2   
    21    14    24 1   
    22    15    16 1   
    23    15    22 1   
    24    16    17 ar  
    25    16    21 ar  
    26    17    18 ar  
    27    17    37 1   
    28    18    19 ar  
    29    18    38 1   
    30    19    20 ar  
    31    19    39 1   
    32    20    21 ar  
    33    20    40 1   
    34    21    41 1   
    35    22    23 2   
    36    23    24 1   
    37    23    42 1   
    38    24    25 1   
    39    25    26 1   
    40    25    43 1   
    41    25    44 1   
    42    26    27 ar  
    43    26    32 ar  
    44    27    28 ar  
    45    27    45 1   
    46    28    29 ar  
    47    28    46 1   
    48    29    30 1   
    49    29    31 ar  
    50    31    32 ar  
    51    31    47 1   
    52    32    48 1   
@<TRIPOS>SUBSTRUCTURE
     1 K23         1 TEMP              0 ****  ****    0 ROOT
