@<TRIPOS>MOLECULE
K24
   18    18     1     0     0
SMALL
No Charge or Current Charge


@<TRIPOS>ATOM
      1 N1           1.9990    -1.2700    -0.0780 nc         1 K24      -0.650000
      2 C4           2.2140     0.0370    -0.0200 cd         1 K24       0.465700
      3 C5           3.6070     0.5950     0.0020 c3         1 K24      -0.136400
      4 N           -2.2440     0.7150     0.0190 ns         1 K24      -0.503900
      5 C           -3.6950     0.9080     0.0310 c3         1 K24       0.096300
      6 O           -2.2400    -1.5620    -0.0820 o          1 K24      -0.593100
      7 C1          -1.6250    -0.5080    -0.0360 c          1 K24       0.646700
      8 C2          -0.1590    -0.4100    -0.0350 cd         1 K24      -0.311600
      9 C3           0.6460    -1.5190    -0.0860 cc         1 K24       0.347900
     10 S            0.7910     1.0700     0.0280 ss         1 K24      -0.056400
     11 H1           4.1570     0.3030    -0.9000 hc         1 K24       0.062700
     12 H2           3.5920     1.6900     0.0490 hc         1 K24       0.062700
     13 H3           4.1600     0.2270     0.8730 hc         1 K24       0.062700
     14 H4          -1.6400     1.5260     0.0540 hn         1 K24       0.316500
     15 H5          -4.1320     0.4870    -0.8840 h1         1 K24       0.042367
     16 H6          -4.1280     0.4070     0.9060 h1         1 K24       0.042367
     17 H7          -3.9220     1.9810     0.0790 h1         1 K24       0.042367
     18 H8           0.3160    -2.5500    -0.1310 h4         1 K24       0.062100
@<TRIPOS>BOND
     1     1     2 2   
     2     1     9 1   
     3     2     3 1   
     4     2    10 1   
     5     3    11 1   
     6     3    12 1   
     7     3    13 1   
     8     4     5 1   
     9     4     7 1   
    10     4    14 1   
    11     5    15 1   
    12     5    16 1   
    13     5    17 1   
    14     6     7 2   
    15     7     8 1   
    16     8     9 2   
    17     8    10 1   
    18     9    18 1   
@<TRIPOS>SUBSTRUCTURE
     1 K24         1 TEMP              0 ****  ****    0 ROOT
