@<TRIPOS>MOLECULE
K24
   18    18     1     0     0
SMALL
abcg2


@<TRIPOS>ATOM
      1 N1           1.9880    -1.2710     0.0050 nc         1 K24      -0.650000
      2 C4           2.2580    -0.0020     0.0110 cd         1 K24       0.465700
      3 C5           3.6260     0.5790    -0.0150 c3         1 K24      -0.136400
      4 N           -2.2540     0.7600    -0.0710 ns         1 K24      -0.503900
      5 C           -3.6950     0.8600    -0.0630 c3         1 K24       0.096300
      6 O           -2.2210    -1.4720     0.2310 o          1 K24      -0.593100
      7 C1          -1.6250    -0.4130     0.0760 c          1 K24       0.646700
      8 C2          -0.1470    -0.3920     0.0460 cd         1 K24      -0.311600
      9 C3           0.6480    -1.4980     0.0260 cc         1 K24       0.347900
     10 S            0.8580     1.0100     0.0450 ss         1 K24      -0.056400
     11 H1           3.8050     1.1140    -0.9480 hc         1 K24       0.062700
     12 H2           3.7740     1.2840     0.8020 hc         1 K24       0.062700
     13 H3           4.3610    -0.2180     0.0730 hc         1 K24       0.062700
     14 H4          -1.7320     1.5980    -0.2670 hn         1 K24       0.316500
     15 H5          -4.1450     0.2760    -0.8670 h1         1 K24       0.042367
     16 H6          -4.1140     0.5210     0.8840 h1         1 K24       0.042367
     17 H7          -3.9650     1.9020    -0.2040 h1         1 K24       0.042367
     18 H8           0.2770    -2.5120     0.0240 h4         1 K24       0.062100
@<TRIPOS>BOND
     1     1     2 2   
     2     1     9 1   
     3     2     3 1   
     4     2    10 1   
     5     3    11 1   
     6     3    12 1   
     7     3    13 1   
     8     4     5 1   
     9     4     7 1   
    10     4    14 1   
    11     5    15 1   
    12     5    16 1   
    13     5    17 1   
    14     6     7 2   
    15     7     8 1   
    16     8     9 2   
    17     8    10 1   
    18     9    18 1   
@<TRIPOS>SUBSTRUCTURE
     1 K24         1 TEMP              0 ****  ****    0 ROOT
