@<TRIPOS>MOLECULE
K25
   23    24     1     0     0
SMALL
No Charge or Current Charge


@<TRIPOS>ATOM
      1 C2          -0.9800    -0.7000     0.0470 ca         1 K25       0.004100
      2 C3          -1.0110     0.7220     0.0250 ca         1 K25       0.008100
      3 C4           0.2000     1.4550     0.0010 ca         1 K25       0.004100
      4 C5           0.2610    -1.3870     0.0470 ca         1 K25       0.031100
      5 N6           2.6890     1.1630    -0.0170 na         1 K25      -0.338600
      6 C7           1.4450    -0.6310     0.0230 ca         1 K25       0.141400
      7 C8           1.3980     0.7310     0.0020 ca         1 K25      -0.067200
      8 C13          3.4960     0.0390    -0.0070 cc         1 K25       0.676700
      9 N14          2.7650    -1.0860     0.0180 nd         1 K25      -0.633100
     10 N15          4.8680     0.0600    -0.0200 nh         1 K25      -0.740600
     11 C16          5.6230     1.3340    -0.0470 c3         1 K25       0.212600
     12 C17          5.6470    -1.2010    -0.0090 c3         1 K25       0.212600
     13 Br1         -2.6250    -1.7000     0.0790 br         1 K25      -0.038100
     14 Br9         -2.6930     1.6570     0.0260 br         1 K25      -0.037100
     15 Br10         0.2330     3.3750    -0.0300 br         1 K25      -0.059100
     16 Br11         0.3500    -3.3070     0.0770 br         1 K25      -0.031100
     17 HN6          3.0160     2.1170    -0.0360 hn         1 K25       0.368000
     18 H161         6.7070     1.1620    -0.0520 h1         1 K25       0.047700
     19 H162         5.3680     1.9110    -0.9460 h1         1 K25       0.047700
     20 H163         5.3820     1.9400     0.8360 h1         1 K25       0.047700
     21 H171         5.4180    -1.7830     0.8940 h1         1 K25       0.047700
     22 H172         5.3970    -1.8120    -0.8860 h1         1 K25       0.047700
     23 H173         6.7280    -1.0110    -0.0240 h1         1 K25       0.047700
@<TRIPOS>BOND
     1     1     2 ar  
     2     1     4 ar  
     3     1    13 1   
     4     2     3 ar  
     5     2    14 1   
     6     3     7 ar  
     7     3    15 1   
     8     4     6 ar  
     9     4    16 1   
    10     5     7 1   
    11     5     8 1   
    12     5    17 1   
    13     6     7 ar  
    14     6     9 1   
    15     8     9 2   
    16     8    10 1   
    17    10    11 1   
    18    10    12 1   
    19    11    18 1   
    20    11    19 1   
    21    11    20 1   
    22    12    21 1   
    23    12    22 1   
    24    12    23 1   
@<TRIPOS>SUBSTRUCTURE
     1 K25         1 TEMP              0 ****  ****    0 ROOT
