@<TRIPOS>MOLECULE
K25
   23    24     1     0     0
SMALL
abcg2


@<TRIPOS>ATOM
      1 C2          -0.9170    -0.6920     0.0300 ca         1 K25       0.004100
      2 C3          -0.9530     0.7120     0.0150 ca         1 K25       0.008100
      3 C4           0.2340     1.4480    -0.0220 ca         1 K25       0.004100
      4 C5           0.2990    -1.3750     0.0100 ca         1 K25       0.031100
      5 N6           2.7310     1.1560    -0.0770 na         1 K25      -0.338600
      6 C7           1.4820    -0.6500    -0.0260 ca         1 K25       0.141400
      7 C8           1.4240     0.7530    -0.0420 ca         1 K25      -0.067200
      8 C13          3.4980     0.0220    -0.0890 cc         1 K25       0.676700
      9 N14          2.7710    -1.0790    -0.0490 nd         1 K25      -0.633100
     10 N15          4.8340     0.0580    -0.1540 nh         1 K25      -0.740600
     11 C16          5.5390     1.3110     0.0160 c3         1 K25       0.212600
     12 C17          5.5660    -1.1790     0.0300 c3         1 K25       0.212600
     13 BR1         -2.5160    -1.6690     0.0790 br         1 K25      -0.038100
     14 BR9         -2.5900     1.6230     0.0460 br         1 K25      -0.037100
     15 BR10         0.2790     3.3170    -0.0460 br         1 K25      -0.059100
     16 BR11         0.4210    -3.2400     0.0270 br         1 K25      -0.031100
     17 HN6          3.0570     2.1100    -0.0910 hn         1 K25       0.368000
     18 H161         6.5800     1.1660    -0.2610 h1         1 K25       0.047700
     19 H162         5.1400     2.0820    -0.6440 h1         1 K25       0.047700
     20 H163         5.5070     1.6750     1.0460 h1         1 K25       0.047700
     21 H171         5.6500    -1.4560     1.0830 h1         1 K25       0.047700
     22 H172         5.0790    -1.9910    -0.5040 h1         1 K25       0.047700
     23 H173         6.5670    -1.0550    -0.3760 h1         1 K25       0.047700
@<TRIPOS>BOND
     1     1     2 ar  
     2     1     4 ar  
     3     1    13 1   
     4     2     3 ar  
     5     2    14 1   
     6     3     7 ar  
     7     3    15 1   
     8     4     6 ar  
     9     4    16 1   
    10     5     7 1   
    11     5     8 1   
    12     5    17 1   
    13     6     7 ar  
    14     6     9 1   
    15     8     9 2   
    16     8    10 1   
    17    10    11 1   
    18    10    12 1   
    19    11    18 1   
    20    11    19 1   
    21    11    20 1   
    22    12    21 1   
    23    12    22 1   
    24    12    23 1   
@<TRIPOS>SUBSTRUCTURE
     1 K25         1 TEMP              0 ****  ****    0 ROOT
