@<TRIPOS>MOLECULE
K26
   69    70     1     0     0
SMALL
abcg2


@<TRIPOS>ATOM
      1 CAR         -2.8990    -1.9790     1.2790 ca         1 K26      -0.080000
      2 CAN         -2.2310    -3.1560     0.9790 ca         1 K26      -0.179500
      3 CBD         -2.5580    -3.8640    -0.1720 ca         1 K26       0.079100
      4 OAI         -1.8880    -5.0120    -0.4250 oh         1 K26      -0.562100
      5 CAO         -3.5580    -3.3780    -1.0090 ca         1 K26      -0.179500
      6 CAS         -4.2130    -2.1970    -0.6900 ca         1 K26      -0.080000
      7 CBF         -3.9040    -1.4740     0.4580 ca         1 K26      -0.047300
      8 CAV         -4.5780    -0.1700     0.7670 c3         1 K26      -0.034100
      9 CBI         -3.9340     1.0260     0.0540 c3         1 K26      -0.183300
     10 PBK         -4.6850     2.6600     0.5880 p5         1 K26       1.273500
     11 OAJ         -4.0740     3.7060    -0.3460 o          1 K26      -0.916167
     12 OAK         -6.1960     2.4700     0.4150 o          1 K26      -0.916167
     13 OAG         -4.2280     2.7830     2.0500 o          1 K26      -0.916167
     14 NAY         -2.5170     1.0710     0.3440 ns         1 K26      -0.399900
     15 C           -1.5340     0.8090    -0.5100 c          1 K26       0.575100
     16 O           -1.6810     0.4290    -1.6670 o          1 K26      -0.682100
     17 CA          -0.1380     1.0970     0.0340 c3         1 K26       0.015700
     18 N            0.8030     0.1840    -0.5550 ns         1 K26      -0.479900
     19 CBB          1.7450    -0.4810     0.1330 c          1 K26       0.580100
     20 OAF          1.8610    -0.4420     1.3450 o          1 K26      -0.594100
     21 CBJ          2.7060    -1.2940    -0.7410 c3         1 K26       0.044700
     22 CBG          2.6060    -2.7970    -0.4480 c3         1 K26      -0.057700
     23 CAC          1.1790    -3.2570    -0.7430 c3         1 K26      -0.098100
     24 CAT          3.6240    -3.5850    -1.2740 c3         1 K26      -0.065400
     25 CAA          3.6540    -5.0730    -0.9490 c3         1 K26      -0.085100
     26 NAX          4.0290    -0.7020    -0.6370 ns         1 K26      -0.496900
     27 CAZ          4.9290    -0.8390     0.3570 c          1 K26       0.612100
     28 CAB          6.1300     0.0710     0.2380 c3         1 K26      -0.185100
     29 OAD          4.8310    -1.6360     1.2770 o          1 K26      -0.591100
     30 CB           0.2390     2.5570    -0.2900 c3         1 K26      -0.057100
     31 CG           1.6440     2.8680     0.1350 ca         1 K26      -0.073300
     32 CD1          2.6930     2.8440    -0.7770 ca         1 K26      -0.068000
     33 CE1          4.0050     3.0630    -0.3810 ca         1 K26      -0.179500
     34 CZ           4.2930     3.3070     0.9570 ca         1 K26       0.106100
     35 OH           5.5500     3.5180     1.4080 oh         1 K26      -0.549100
     36 CE2          3.2550     3.3390     1.8850 ca         1 K26      -0.179500
     37 CD2          1.9520     3.1190     1.4700 ca         1 K26      -0.068000
     38 HAR         -2.6290    -1.4420     2.1810 ha         1 K26       0.116500
     39 HAN         -1.4550    -3.5300     1.6370 ha         1 K26       0.094500
     40 HAI         -2.1770    -5.3870    -1.2640 ho         1 K26       0.441000
     41 HAO         -3.8310    -3.9200    -1.9090 ha         1 K26       0.094500
     42 HAS         -4.9860    -1.8310    -1.3580 ha         1 K26       0.116500
     43 HAV1        -5.6320    -0.2020     0.4840 hc         1 K26       0.065700
     44 HAV2        -4.5490     0.0170     1.8440 hc         1 K26       0.065700
     45 HBI         -4.0440     0.8920    -1.0240 h1         1 K26       0.056700
     46 HAY         -2.2810     1.4380     1.2550 hn         1 K26       0.327500
     47 HA          -0.1120     0.9560     1.1150 h1         1 K26       0.085700
     48 H            0.7510     0.0690    -1.5540 hn         1 K26       0.321500
     49 HB1C         0.1300     2.7170    -1.3660 hc         1 K26       0.086700
     50 HB2C        -0.4780     3.2190     0.2020 hc         1 K26       0.086700
     51 HBJ          2.4290    -1.1630    -1.7920 h1         1 K26       0.044700
     52 HBG          2.8150    -2.9620     0.6100 hc         1 K26       0.091700
     53 HAX          4.2040     0.0370    -1.2980 hn         1 K26       0.302500
     54 HAC1         0.9290    -3.1110    -1.7980 hc         1 K26       0.045033
     55 HAC2         1.0500    -4.3140    -0.5190 hc         1 K26       0.045033
     56 HAC3         0.4320    -2.7220    -0.1560 hc         1 K26       0.045033
     57 HAT1         3.4090    -3.4450    -2.3400 hc         1 K26       0.029700
     58 HAT2         4.6240    -3.1810    -1.1100 hc         1 K26       0.029700
     59 HAA1         4.4450    -5.5740    -1.5090 hc         1 K26       0.026367
     60 HAA2         3.8490    -5.2360     0.1130 hc         1 K26       0.026367
     61 HAA3         2.7160    -5.5730    -1.1930 hc         1 K26       0.026367
     62 HAB1         6.1140     0.7910     1.0570 hc         1 K26       0.051033
     63 HAB2         7.0430    -0.5150     0.3380 hc         1 K26       0.051033
     64 HAB3         6.1750     0.6230    -0.6990 hc         1 K26       0.051033
     65 HD1          2.4890     2.6530    -1.8240 ha         1 K26       0.120000
     66 HD2          1.1590     3.1400     2.2080 ha         1 K26       0.120000
     67 HE1          4.8010     3.0410    -1.1180 ha         1 K26       0.103500
     68 HH           6.1750     3.4980     0.6750 ho         1 K26       0.445000
     69 HE2          3.4710     3.5330     2.9280 ha         1 K26       0.103500
@<TRIPOS>BOND
     1     1     2 ar  
     2     1     7 ar  
     3     1    38 1   
     4     2     3 ar  
     5     2    39 1   
     6     3     4 1   
     7     3     5 ar  
     8     4    40 1   
     9     5     6 ar  
    10     5    41 1   
    11     6     7 ar  
    12     6    42 1   
    13     7     8 1   
    14     8     9 1   
    15     8    43 1   
    16     8    44 1   
    17     9    10 1   
    18     9    14 1   
    19     9    45 1   
    20    10    11 1   
    21    10    12 1   
    22    10    13 1   
    23    14    15 1   
    24    14    46 1   
    25    15    16 2   
    26    15    17 1   
    27    17    18 1   
    28    17    30 1   
    29    17    47 1   
    30    18    19 1   
    31    18    48 1   
    32    19    20 2   
    33    19    21 1   
    34    21    22 1   
    35    21    26 1   
    36    21    51 1   
    37    22    23 1   
    38    22    24 1   
    39    22    52 1   
    40    23    54 1   
    41    23    55 1   
    42    23    56 1   
    43    24    25 1   
    44    24    57 1   
    45    24    58 1   
    46    25    59 1   
    47    25    60 1   
    48    25    61 1   
    49    26    27 1   
    50    26    53 1   
    51    27    28 1   
    52    27    29 2   
    53    28    62 1   
    54    28    63 1   
    55    28    64 1   
    56    30    31 1   
    57    30    49 1   
    58    30    50 1   
    59    31    32 ar  
    60    31    37 ar  
    61    32    33 ar  
    62    32    65 1   
    63    33    34 ar  
    64    33    67 1   
    65    34    35 1   
    66    34    36 ar  
    67    35    68 1   
    68    36    37 ar  
    69    36    69 1   
    70    37    66 1   
@<TRIPOS>SUBSTRUCTURE
     1 K26         1 TEMP              0 ****  ****    0 ROOT
