@<TRIPOS>MOLECULE
K26
   69    70     1     0     0
SMALL
No Charge or Current Charge


@<TRIPOS>ATOM
      1 CAR         -2.7440    -1.7510     1.6940 ca         1 K26      -0.080000
      2 CAN         -1.9670    -2.9190     1.5910 ca         1 K26      -0.179500
      3 CBD         -2.1810    -3.8130     0.5330 ca         1 K26       0.079100
      4 OAI         -1.4380    -4.9500     0.4460 oh         1 K26      -0.562100
      5 CAO         -3.1650    -3.5400    -0.4300 ca         1 K26      -0.179500
      6 CAS         -3.9400    -2.3700    -0.3310 ca         1 K26      -0.080000
      7 CBF         -3.7370    -1.4700     0.7340 ca         1 K26      -0.047300
      8 CAV         -4.5880    -0.2070     0.8460 c3         1 K26      -0.034100
      9 CBI         -4.0820     0.9630    -0.0370 c3         1 K26      -0.183300
     10 PBK         -5.1570     2.4910     0.1210 p5         1 K26       1.273500
     11 OAJ         -4.7350     3.4890    -0.9040 o          1 K26      -0.916167
     12 OAK         -6.5860     2.1200    -0.0930 o          1 K26      -0.916167
     13 OAG         -4.9740     3.0630     1.4870 o          1 K26      -0.916167
     14 NAY         -2.6420     1.2390     0.2140 ns         1 K26      -0.399900
     15 C           -1.5880     0.7900    -0.5610 c          1 K26       0.575100
     16 O           -1.7530     0.1720    -1.6100 o          1 K26      -0.682100
     17 CA          -0.1790     1.1220     0.0070 c3         1 K26       0.015700
     18 N            0.8310     0.2160    -0.5820 ns         1 K26      -0.479900
     19 CBB          1.9040    -0.3300     0.0950 c          1 K26       0.580100
     20 OAF          2.0690    -0.1450     1.2950 o          1 K26      -0.594100
     21 CBJ          2.8820    -1.1600    -0.7980 c3         1 K26       0.044700
     22 CBG          2.5200    -2.6850    -0.8810 c3         1 K26      -0.057700
     23 CAC          1.0570    -2.9070    -1.3540 c3         1 K26      -0.098100
     24 CAT          3.5340    -3.4700    -1.7710 c3         1 K26      -0.065400
     25 CAA          3.3460    -5.0030    -1.7870 c3         1 K26      -0.085100
     26 NAX          4.2900    -0.8810    -0.4060 ns         1 K26      -0.496900
     27 CAZ          4.9660    -1.3770     0.6920 c          1 K26       0.612100
     28 CAB          6.3890    -0.8520     0.8320 c3         1 K26      -0.185100
     29 OAD          4.4870    -2.1700     1.4890 o          1 K26      -0.591100
     30 CB           0.1960     2.6070    -0.2470 c3         1 K26      -0.057100
     31 CG           1.6130     2.9580     0.1980 ca         1 K26      -0.073300
     32 CD1          2.6690     2.9750    -0.7350 ca         1 K26      -0.068000
     33 CE1          3.9790     3.2770    -0.3200 ca         1 K26      -0.179500
     34 CZ           4.2370     3.5670     1.0290 ca         1 K26       0.106100
     35 OH           5.5030     3.8620     1.4350 oh         1 K26      -0.549100
     36 CE2          3.1900     3.5550     1.9620 ca         1 K26      -0.179500
     37 CD2          1.8810     3.2510     1.5500 ca         1 K26      -0.068000
     38 HAR         -2.5730    -1.0630     2.5200 ha         1 K26       0.116500
     39 HAN         -1.2030    -3.1280     2.3360 ha         1 K26       0.094500
     40 HAI         -1.7380    -5.4550    -0.3400 ho         1 K26       0.441000
     41 HAO         -3.3350    -4.2280    -1.2550 ha         1 K26       0.094500
     42 HAS         -4.7000    -2.1620    -1.0810 ha         1 K26       0.116500
     43 HAV1        -5.6250    -0.4380     0.5720 hc         1 K26       0.065700
     44 HAV2        -4.6240     0.1260     1.8900 hc         1 K26       0.065700
     45 HBI         -4.2010     0.6730    -1.0870 h1         1 K26       0.056700
     46 HAY         -2.4010     1.7770     1.0400 hn         1 K26       0.327500
     47 HA          -0.2210     0.9470     1.0900 h1         1 K26       0.085700
     48 H            0.7360    -0.0230    -1.5630 hn         1 K26       0.321500
     49 HB1C         0.0770     2.8220    -1.3160 hc         1 K26       0.086700
     50 HB2C        -0.5260     3.2550     0.2670 hc         1 K26       0.086700
     51 HBJ          2.7740    -0.7580    -1.8140 h1         1 K26       0.044700
     52 HBG          2.5790    -3.1010     0.1320 hc         1 K26       0.091700
     53 HAX          4.8130    -0.2280    -0.9770 hn         1 K26       0.302500
     54 HAC1         0.9020    -2.4950    -2.3580 hc         1 K26       0.045033
     55 HAC2         0.8020    -3.9720    -1.3780 hc         1 K26       0.045033
     56 HAC3         0.3410    -2.4360    -0.6710 hc         1 K26       0.045033
     57 HAT1         3.4810    -3.0940    -2.8010 hc         1 K26       0.029700
     58 HAT2         4.5550    -3.2760    -1.4240 hc         1 K26       0.029700
     59 HAA1         4.1810    -5.4790    -2.3150 hc         1 K26       0.026367
     60 HAA2         3.3180    -5.4020    -0.7660 hc         1 K26       0.026367
     61 HAA3         2.4220    -5.2880    -2.3020 hc         1 K26       0.026367
     62 HAB1         6.3640     0.2440     0.8570 hc         1 K26       0.051033
     63 HAB2         6.9090    -1.2630     1.7050 hc         1 K26       0.051033
     64 HAB3         6.9370    -1.0510    -0.0960 hc         1 K26       0.051033
     65 HD1          2.4770     2.7470    -1.7820 ha         1 K26       0.120000
     66 HD2          1.0760     3.2350     2.2820 ha         1 K26       0.120000
     67 HE1          4.7840     3.2840    -1.0500 ha         1 K26       0.103500
     68 HH           6.0910     3.8410     0.6510 ho         1 K26       0.445000
     69 HE2          3.3910     3.7780     3.0070 ha         1 K26       0.103500
@<TRIPOS>BOND
     1     1     2 ar  
     2     1     7 ar  
     3     1    38 1   
     4     2     3 ar  
     5     2    39 1   
     6     3     4 1   
     7     3     5 ar  
     8     4    40 1   
     9     5     6 ar  
    10     5    41 1   
    11     6     7 ar  
    12     6    42 1   
    13     7     8 1   
    14     8     9 1   
    15     8    43 1   
    16     8    44 1   
    17     9    10 1   
    18     9    14 1   
    19     9    45 1   
    20    10    11 1   
    21    10    12 1   
    22    10    13 1   
    23    14    15 1   
    24    14    46 1   
    25    15    16 2   
    26    15    17 1   
    27    17    18 1   
    28    17    30 1   
    29    17    47 1   
    30    18    19 1   
    31    18    48 1   
    32    19    20 2   
    33    19    21 1   
    34    21    22 1   
    35    21    26 1   
    36    21    51 1   
    37    22    23 1   
    38    22    24 1   
    39    22    52 1   
    40    23    54 1   
    41    23    55 1   
    42    23    56 1   
    43    24    25 1   
    44    24    57 1   
    45    24    58 1   
    46    25    59 1   
    47    25    60 1   
    48    25    61 1   
    49    26    27 1   
    50    26    53 1   
    51    27    28 1   
    52    27    29 2   
    53    28    62 1   
    54    28    63 1   
    55    28    64 1   
    56    30    31 1   
    57    30    49 1   
    58    30    50 1   
    59    31    32 ar  
    60    31    37 ar  
    61    32    33 ar  
    62    32    65 1   
    63    33    34 ar  
    64    33    67 1   
    65    34    35 1   
    66    34    36 ar  
    67    35    68 1   
    68    36    37 ar  
    69    36    69 1   
    70    37    66 1   
@<TRIPOS>SUBSTRUCTURE
     1 K26         1 TEMP              0 ****  ****    0 ROOT
