@<TRIPOS>MOLECULE
K27
   39    40     1     0     0
SMALL
abcg2


@<TRIPOS>ATOM
      1 C1          -1.1320    -2.0570     0.2600 c3         1 K27       0.036600
      2 C5A         -4.6630     0.1850    -0.3110 ca         1 K27       0.037100
      3 O10         -7.5490     2.1950     0.0970 oh         1 K27      -0.445000
      4 N9          -6.4480     1.5150     0.4340 n2         1 K27      -0.245700
      5 C8          -5.8740     0.9560    -0.5530 ce         1 K27       0.341800
      6 C4          -4.0450    -0.4670    -1.3770 ca         1 K27      -0.106500
      7 C3          -2.9060    -1.2020    -1.1620 ca         1 K27      -0.062000
      8 N2          -2.3780    -1.3050     0.0640 na         1 K27       0.037300
      9 C7          -2.9480    -0.6840     1.1110 ca         1 K27      -0.011300
     10 C6          -4.0850     0.0610     0.9560 ca         1 K27      -0.106500
     11 C2           0.0740    -1.1410     0.1130 c3         1 K27      -0.126400
     12 C5           1.3470    -1.9490     0.3140 c3         1 K27       0.031600
     13 N8           2.5300    -1.0870     0.1670 na         1 K27       0.057300
     14 C9           2.9780    -0.4050     1.2300 ca         1 K27      -0.069500
     15 C10          4.0460     0.4510     1.1130 ca         1 K27      -0.080000
     16 C11          4.6780     0.5910    -0.1160 ca         1 K27      -0.020600
     17 C12          4.1880    -0.1220    -1.2030 ca         1 K27      -0.080000
     18 C13          3.1050    -0.9530    -1.0330 ca         1 K27      -0.018800
     19 C14          5.8300     1.5560    -0.2230 c          1 K27       0.602700
     20 N15          6.7500     1.2540    -1.1390 nt         1 K27      -0.576000
     21 O3           5.8570     2.5340     0.5020 o          1 K27      -0.526100
     22 H11C        -1.1700    -2.5120     1.2480 h1         1 K27       0.103700
     23 H12C        -1.1130    -2.8610    -0.4740 h1         1 K27       0.103700
     24 H21C         0.0760    -0.6850    -0.8790 hc         1 K27       0.082200
     25 H22C         0.0240    -0.3360     0.8500 hc         1 K27       0.082200
     26 H8          -6.2460     1.0240    -1.5730 h4         1 K27       0.051800
     27 H4          -4.4440    -0.4090    -2.3790 ha         1 K27       0.192000
     28 H6          -4.5150     0.5400     1.8230 ha         1 K27       0.192000
     29 H10         -7.8880     2.5530     0.9270 ho         1 K27       0.508000
     30 H3          -2.4000    -1.7270    -1.9580 h4         1 K27       0.180000
     31 H7          -2.4690    -0.8100     2.0700 h4         1 K27       0.180000
     32 H51C         1.3860    -2.3950     1.3060 h1         1 K27       0.105700
     33 H52C         1.4300    -2.7520    -0.4160 h1         1 K27       0.105700
     34 H9           2.4630    -0.5630     2.1660 h4         1 K27       0.184000
     35 H13          2.6830    -1.5240    -1.8460 h4         1 K27       0.184000
     36 HA           4.3800     0.9910     1.9860 ha         1 K27       0.195000
     37 H12          4.6150    -0.0390    -2.1920 ha         1 K27       0.195000
     38 H151         6.7630     0.3780    -1.6320 hn         1 K27       0.342500
     39 H152         7.5550     1.8510    -1.2540 hn         1 K27       0.342500
@<TRIPOS>BOND
     1     1     8 1   
     2     1    11 1   
     3     1    22 1   
     4     1    23 1   
     5     2     5 1   
     6     2     6 ar  
     7     2    10 ar  
     8     3     4 1   
     9     3    29 1   
    10     4     5 2   
    11     5    26 1   
    12     6     7 ar  
    13     6    27 1   
    14     7     8 1   
    15     7    30 1   
    16     8     9 2   
    17     9    10 ar  
    18     9    31 1   
    19    10    28 1   
    20    11    12 1   
    21    11    24 1   
    22    11    25 1   
    23    12    13 1   
    24    12    32 1   
    25    12    33 1   
    26    13    14 1   
    27    13    18 2   
    28    14    15 ar  
    29    14    34 1   
    30    15    16 ar  
    31    15    36 1   
    32    16    17 ar  
    33    16    19 1   
    34    17    18 ar  
    35    17    37 1   
    36    18    35 1   
    37    19    20 1   
    38    19    21 2   
    39    20    38 1   
    40    20    39 1   
@<TRIPOS>SUBSTRUCTURE
     1 K27         1 TEMP              0 ****  ****    0 ROOT
