@<TRIPOS>MOLECULE
K27
   39    40     1     0     0
SMALL
No Charge or Current Charge


@<TRIPOS>ATOM
      1 C1          -1.1770    -2.0740     0.3120 c3         1 K27       0.036600
      2 C5A         -4.7980     0.1830    -0.3340 ca         1 K27       0.037100
      3 O10         -7.8390     2.2680    -0.0560 oh         1 K27      -0.445000
      4 N9          -6.6850     1.5810     0.3650 n2         1 K27      -0.245700
      5 C8          -6.0480     0.9670    -0.5880 ce         1 K27       0.341800
      6 C4          -4.1470    -0.4610    -1.4070 ca         1 K27      -0.106500
      7 C3          -2.9710    -1.2020    -1.1850 ca         1 K27      -0.062000
      8 N2          -2.4250    -1.3180     0.0950 na         1 K27       0.037300
      9 C7          -3.0630    -0.6790     1.1620 ca         1 K27      -0.011300
     10 C6          -4.2400     0.0670     0.9600 ca         1 K27      -0.106500
     11 C2           0.0890    -1.1990     0.1570 c3         1 K27      -0.126400
     12 C5           1.4010    -1.9880     0.3820 c3         1 K27       0.031600
     13 N8           2.6060    -1.1490     0.2350 na         1 K27       0.057300
     14 C9           3.1260    -0.4570     1.3300 ca         1 K27      -0.069500
     15 C10          4.2590     0.3670     1.1950 ca         1 K27      -0.080000
     16 C11          4.8970     0.5160    -0.0580 ca         1 K27      -0.020600
     17 C12          4.3600    -0.1860    -1.1670 ca         1 K27      -0.080000
     18 C13          3.2250    -1.0050    -1.0080 ca         1 K27      -0.018800
     19 C14          6.1180     1.4120    -0.1730 c          1 K27       0.602700
     20 N15          6.7240     1.5480    -1.3760 nt         1 K27      -0.576000
     21 O3           6.5740     2.0170     0.7850 o          1 K27      -0.526100
     22 H11C        -1.2010    -2.5150     1.3180 h1         1 K27       0.103700
     23 H12C        -1.1410    -2.9070    -0.4040 h1         1 K27       0.103700
     24 H21C         0.1010    -0.7570    -0.8480 hc         1 K27       0.082200
     25 H22C         0.0420    -0.3660     0.8700 hc         1 K27       0.082200
     26 H8          -6.4020     0.9980    -1.6210 h4         1 K27       0.051800
     27 H4          -4.5520    -0.3880    -2.4160 ha         1 K27       0.192000
     28 H6          -4.7120     0.5520     1.8130 ha         1 K27       0.192000
     29 H10         -8.2080     2.6770     0.7650 ho         1 K27       0.508000
     30 H3          -2.4540    -1.7020    -2.0070 h4         1 K27       0.180000
     31 H7          -2.6170    -0.7740     2.1530 h4         1 K27       0.180000
     32 H51C         1.4000    -2.4280     1.3880 h1         1 K27       0.105700
     33 H52C         1.4610    -2.8190    -0.3330 h1         1 K27       0.105700
     34 H9           2.6240    -0.5750     2.2920 h4         1 K27       0.184000
     35 H13          2.7990    -1.5470    -1.8540 h4         1 K27       0.184000
     36 HA           4.6400     0.8920     2.0710 ha         1 K27       0.195000
     37 H12          4.8050    -0.1090    -2.1560 ha         1 K27       0.195000
     38 H151         6.3800     1.0650    -2.1910 hn         1 K27       0.342500
     39 H152         7.5350     2.1440    -1.4470 hn         1 K27       0.342500
@<TRIPOS>BOND
     1     1     8 1   
     2     1    11 1   
     3     1    22 1   
     4     1    23 1   
     5     2     5 1   
     6     2     6 ar  
     7     2    10 ar  
     8     3     4 1   
     9     3    29 1   
    10     4     5 2   
    11     5    26 1   
    12     6     7 ar  
    13     6    27 1   
    14     7     8 1   
    15     7    30 1   
    16     8     9 2   
    17     9    10 ar  
    18     9    31 1   
    19    10    28 1   
    20    11    12 1   
    21    11    24 1   
    22    11    25 1   
    23    12    13 1   
    24    12    32 1   
    25    12    33 1   
    26    13    14 1   
    27    13    18 2   
    28    14    15 ar  
    29    14    34 1   
    30    15    16 ar  
    31    15    36 1   
    32    16    17 ar  
    33    16    19 1   
    34    17    18 ar  
    35    17    37 1   
    36    18    35 1   
    37    19    20 1   
    38    19    21 2   
    39    20    38 1   
    40    20    39 1   
@<TRIPOS>SUBSTRUCTURE
     1 K27         1 TEMP              0 ****  ****    0 ROOT
