@<TRIPOS>MOLECULE
K28
   74    79     1     0     0
SMALL
abcg2


@<TRIPOS>ATOM
      1 O3          18.8290     8.8520    15.5930 os         1 K28      -0.568400
      2 C4          18.4770    10.8360    12.2800 cc         1 K28       0.505700
      3 C5          20.5050    11.3190    11.7800 ca         1 K28      -0.083600
      4 O4          18.2430     7.2240    17.4550 o          1 K28      -0.904167
      5 C6          21.7330    11.8560    11.3410 ca         1 K28       0.426900
      6 N1          19.2150    11.7930    11.7400 nd         1 K28      -0.590100
      7 C7          22.7380     9.9120    12.0910 ca         1 K28       0.143900
      8 C8          20.5450    10.0510    12.3550 ca         1 K28       0.140500
      9 N2          21.8340    13.0590    10.7590 nv         1 K28      -1.091900
     10 C9          18.8360     8.4690    13.2210 c5         1 K28       0.270300
     11 O5          19.1990     9.5410    17.9670 o          1 K28      -0.904167
     12 C10         17.3090     6.7460    12.9980 c5         1 K28       0.134300
     13 O6          16.7980     9.3000    17.0840 o          1 K28      -0.904167
     14 C11         15.8650     6.6840    12.5320 c3         1 K28       0.180600
     15 C12         17.4790     7.0350    14.4990 c5         1 K28       0.135300
     16 N3          22.8440    11.1150    11.5140 nb         1 K28      -0.330000
     17 C13         18.0210     8.4830    14.5070 c5         1 K28       0.205300
     18 O7          15.7270     9.1960     9.9410 os         1 K28      -0.410000
     19 C14         13.5490    10.0520    10.5280 c3         1 K28       0.169800
     20 O8          15.8600     9.3310     6.3550 oh         1 K28      -0.686000
     21 C15         14.8040    10.2730     9.7150 c5         1 K28       0.124300
     22 N4          21.6400     9.3060    12.5370 nb         1 K28      -0.164000
     23 N           13.7710     9.8800    11.9670 n3         1 K28      -0.697600
     24 C           12.4960     9.5870    12.6310 c3         1 K28       0.147100
     25 O           18.0120     7.7980    12.2890 os         1 K28      -0.510000
     26 C1          14.4260    11.0360    12.6080 c3         1 K28       0.255900
     27 C16         16.4660     9.0450     8.7430 c5         1 K28       0.274300
     28 C17         15.3820     9.1380     7.6660 c5         1 K28       0.134300
     29 C18         14.5530    10.3250     8.1820 c5         1 K28       0.135300
     30 C19         16.7410     6.5280     8.8270 cc         1 K28       0.404700
     31 C2          15.8800    10.9940    12.5050 c1         1 K28      -0.120100
     32 C20         18.8400     6.3860     9.1960 ca         1 K28      -0.091600
     33 C21         20.1730     6.0360     9.4840 ca         1 K28       0.451900
     34 C22         20.6800     8.2930     9.4170 ca         1 K28       0.189900
     35 C23         18.5700     7.7430     9.0540 ca         1 K28       0.167500
     36 C3          17.0770    10.9100    12.4290 cg         1 K28      -0.050200
     37 N10         19.4530     8.7410     9.1530 nb         1 K28      -0.207000
     38 N5          19.2440     9.7430    12.6780 na         1 K28      -0.203300
     39 N6          17.2160     7.8240     8.8040 na         1 K28      -0.289300
     40 N7          17.6800     5.6430     9.0490 nd         1 K28      -0.556100
     41 N8          20.5750     4.7660     9.6530 nv         1 K28      -1.073900
     42 N9          21.0790     7.0280     9.5860 nb         1 K28      -0.288000
     43 O1          15.0450     7.6700    13.1360 oh         1 K28      -0.749000
     44 O2          18.3970     6.1220    15.0730 oh         1 K28      -0.833000
     45 O9          15.0460    11.5240     7.6010 oh         1 K28      -0.691000
     46 P           18.2050     8.7340    17.1590 p5         1 K28       1.286900
     47 H2          23.6670     9.3640    12.2040 h5         1 K28       0.032100
     48 H3          22.7340    13.4030    10.4700 hn         1 K28       0.492000
     49 H4          21.0220    13.6390    10.6290 hn         1 K28       0.492000
     50 H5          19.7680     7.9240    13.3950 h2         1 K28       0.104700
     51 H7          17.7960     5.7950    12.7620 h1         1 K28       0.046700
     52 H8          15.4760     5.6980    12.8090 h1         1 K28       0.013200
     53 H9          15.8370     6.7610    11.4430 h1         1 K28       0.013200
     54 H10         16.5200     6.9880    15.0170 h1         1 K28       0.076700
     55 H11         17.1760     9.1640    14.3960 h1         1 K28       0.046700
     56 H12         12.8770    10.9040    10.3360 h1         1 K28       0.025200
     57 H13         13.0500     9.1500    10.1670 h1         1 K28       0.025200
     58 H15         15.2890    11.2120     9.9950 h1         1 K28       0.077700
     59 H17         12.6750     9.3700    13.6830 h1         1 K28       0.038033
     60 H18         11.7870    10.4230    12.5560 h1         1 K28       0.038033
     61 H19         12.0470     8.7100    12.1670 h1         1 K28       0.038033
     62 H20         14.0500    11.9890    12.2080 h1         1 K28       0.055200
     63 H21         14.1660    11.0190    13.6690 h1         1 K28       0.055200
     64 H22         17.1940     9.8510     8.6160 h2         1 K28       0.117700
     65 H23         14.7570     8.2430     7.7280 h1         1 K28       0.036700
     66 H24         13.4950    10.2000     7.9440 h1         1 K28       0.040700
     67 H25         15.6970     6.3070     8.6750 h5         1 K28       0.054800
     68 H26         21.4540     9.0460     9.5090 h5         1 K28       0.050100
     69 H27         21.5230     4.5770     9.9330 hn         1 K28       0.500500
     70 H28         19.9060     4.0140     9.6600 hn         1 K28       0.500500
     71 H29         14.7800     8.3760    12.5060 ho         1 K28       0.530000
     72 H30         18.4440     6.4130    16.0320 ho         1 K28       0.608000
     73 H31         14.5060    12.2570     7.9230 ho         1 K28       0.497000
     74 H14         16.1300     8.4730     6.0040 ho         1 K28       0.503000
@<TRIPOS>BOND
     1     1    17 1   
     2     1    46 1   
     3     2     6 2   
     4     2    36 1   
     5     2    38 1   
     6     3     5 ar  
     7     3     6 1   
     8     3     8 ar  
     9     4    46 1   
    10     5     9 1   
    11     5    16 ar  
    12     7    16 ar  
    13     7    22 ar  
    14     7    47 1   
    15     8    22 ar  
    16     8    38 1   
    17     9    48 1   
    18     9    49 1   
    19    10    17 1   
    20    10    25 1   
    21    10    38 1   
    22    10    50 1   
    23    11    46 1   
    24    12    14 1   
    25    12    15 1   
    26    12    25 1   
    27    12    51 1   
    28    13    46 1   
    29    14    43 1   
    30    14    52 1   
    31    14    53 1   
    32    15    17 1   
    33    15    44 1   
    34    15    54 1   
    35    17    55 1   
    36    18    21 1   
    37    18    27 1   
    38    19    21 1   
    39    19    23 1   
    40    19    56 1   
    41    19    57 1   
    42    20    28 1   
    43    20    74 1   
    44    21    29 1   
    45    21    58 1   
    46    23    24 1   
    47    23    26 1   
    48    24    59 1   
    49    24    60 1   
    50    24    61 1   
    51    26    31 1   
    52    26    62 1   
    53    26    63 1   
    54    27    28 1   
    55    27    39 1   
    56    27    64 1   
    57    28    29 1   
    58    28    65 1   
    59    29    45 1   
    60    29    66 1   
    61    30    39 1   
    62    30    40 2   
    63    30    67 1   
    64    31    36 3   
    65    32    33 ar  
    66    32    35 ar  
    67    32    40 1   
    68    33    41 1   
    69    33    42 ar  
    70    34    37 ar  
    71    34    42 ar  
    72    34    68 1   
    73    35    37 ar  
    74    35    39 1   
    75    41    69 1   
    76    41    70 1   
    77    43    71 1   
    78    44    72 1   
    79    45    73 1   
@<TRIPOS>SUBSTRUCTURE
     1 K28         1 TEMP              0 ****  ****    0 ROOT
