@<TRIPOS>MOLECULE
K28
   74    79     1     0     0
SMALL
No Charge or Current Charge


@<TRIPOS>ATOM
      1 O3          18.9140     8.8110    15.6300 os         1 K28      -0.568400
      2 C4          18.4590    11.0240    12.4740 cc         1 K28       0.505700
      3 C5          20.4840    11.5970    12.0390 ca         1 K28      -0.083600
      4 O4          18.9830     6.7700    17.0980 o          1 K28      -0.904167
      5 C6          21.6830    12.2540    11.6880 ca         1 K28       0.426900
      6 N1          19.1770    12.0920    12.0770 nd         1 K28      -0.590100
      7 C7          22.8180    10.3030    12.0680 ca         1 K28       0.143900
      8 C8          20.5520    10.2730    12.3950 ca         1 K28       0.140500
      9 N2          21.7290    13.5600    11.3140 nv         1 K28      -1.091900
     10 C9          18.8580     8.5820    13.1780 c5         1 K28       0.270300
     11 O5          19.4760     8.9350    18.0810 o          1 K28      -0.904167
     12 C10         17.2780     6.8670    12.8690 c5         1 K28       0.134300
     13 O6          17.1930     8.4010    17.4450 o          1 K28      -0.904167
     14 C11         15.7590     7.0220    12.5420 c3         1 K28       0.180600
     15 C12         17.6540     6.9500    14.4010 c5         1 K28       0.135300
     16 N3          22.8580    11.6060    11.6970 nb         1 K28      -0.330000
     17 C13         18.0450     8.4790    14.4980 c5         1 K28       0.205300
     18 O7          15.9250     9.4640     9.8680 os         1 K28      -0.410000
     19 C14         13.6160    10.0980    10.4580 c3         1 K28       0.169800
     20 O8          15.4410     8.8970     6.2830 oh         1 K28      -0.686000
     21 C15         14.8800    10.4420     9.6160 c5         1 K28       0.124300
     22 N4          21.7190     9.5950    12.4220 nb         1 K28      -0.164000
     23 N           13.7670     9.9590    11.9400 n3         1 K28      -0.697600
     24 C           12.4750     9.5690    12.5570 c3         1 K28       0.147100
     25 O           18.0490     7.9060    12.1980 os         1 K28      -0.510000
     26 C1          14.3580    11.1500    12.6160 c3         1 K28       0.255900
     27 C16         16.4300     8.9970     8.6080 c5         1 K28       0.274300
     28 C17         15.1650     9.0040     7.6940 c5         1 K28       0.134300
     29 C18         14.6220    10.4150     8.0650 c5         1 K28       0.135300
     30 C19         16.5770     6.4570     8.7930 cc         1 K28       0.404700
     31 C2          15.8260    11.1360    12.6230 c1         1 K28      -0.120100
     32 C20         18.6690     6.2490     9.2460 ca         1 K28      -0.091600
     33 C21         19.9690     5.8070     9.5640 ca         1 K28       0.451900
     34 C22         20.6730     7.9850     9.5460 ca         1 K28       0.189900
     35 C23         18.4650     7.5980     9.1020 ca         1 K28       0.167500
     36 C3          17.0400    11.0820    12.5830 cg         1 K28      -0.050200
     37 N10         19.4590     8.4990     9.2400 nb         1 K28      -0.207000
     38 N5          19.2680     9.8950    12.6740 na         1 K28      -0.203300
     39 N6          17.1380     7.7380     8.8170 na         1 K28      -0.289300
     40 N7          17.4960     5.5090     9.0520 nd         1 K28      -0.556100
     41 N8          20.2780     4.4920     9.7290 nv         1 K28      -1.073900
     42 N9          20.9810     6.6770     9.7190 nb         1 K28      -0.288000
     43 O1          15.1180     8.0250    13.3410 oh         1 K28      -0.749000
     44 O2          18.7390     6.0540    14.7310 oh         1 K28      -0.833000
     45 O9          15.3580    11.4280     7.3640 oh         1 K28      -0.691000
     46 P           18.6250     8.2160    17.0970 p5         1 K28       1.286900
     47 H2          23.7660     9.7690    12.0810 h5         1 K28       0.032100
     48 H3          22.5500    13.8850    10.8110 hn         1 K28       0.492000
     49 H4          20.8430    14.0100    11.0930 hn         1 K28       0.492000
     50 H5          19.7890     8.0150    13.3120 h2         1 K28       0.104700
     51 H7          17.5940     5.9010    12.4520 h1         1 K28       0.046700
     52 H8          15.2740     6.0530    12.7200 h1         1 K28       0.013200
     53 H9          15.6400     7.2510    11.4750 h1         1 K28       0.013200
     54 H10         16.7780     6.7320    15.0290 h1         1 K28       0.076700
     55 H11         17.1660     9.1340    14.5060 h1         1 K28       0.046700
     56 H12         12.8670    10.8730    10.2470 h1         1 K28       0.025200
     57 H13         13.2090     9.1590    10.0590 h1         1 K28       0.025200
     58 H15         15.2420    11.4330     9.9170 h1         1 K28       0.077700
     59 H17         12.5930     9.3870    13.6330 h1         1 K28       0.038033
     60 H18         11.7230    10.3580    12.4230 h1         1 K28       0.038033
     61 H19         12.0900     8.6470    12.1020 h1         1 K28       0.038033
     62 H20         14.0050    12.0800    12.1500 h1         1 K28       0.055200
     63 H21         14.0440    11.1840    13.6690 h1         1 K28       0.055200
     64 H22         17.1700     9.7120     8.2230 h2         1 K28       0.117700
     65 H23         14.4510     8.2290     8.0060 h1         1 K28       0.036700
     66 H24         13.5510    10.5010     7.8320 h1         1 K28       0.040700
     67 H25         15.5250     6.2850     8.5990 h5         1 K28       0.054800
     68 H26         21.4880     8.6980     9.6620 h5         1 K28       0.050100
     69 H27         21.1280     4.2630    10.2370 hn         1 K28       0.500500
     70 H28         19.4990     3.8470     9.8290 hn         1 K28       0.500500
     71 H29         14.7210     8.6960    12.7120 ho         1 K28       0.530000
     72 H30         18.9180     6.2710    15.7220 ho         1 K28       0.608000
     73 H31         15.5680    11.0090     6.4930 ho         1 K28       0.497000
     74 H14         15.6400     7.9510     6.0880 ho         1 K28       0.503000
@<TRIPOS>BOND
     1     1    17 1   
     2     1    46 1   
     3     2     6 2   
     4     2    36 1   
     5     2    38 1   
     6     3     5 ar  
     7     3     6 1   
     8     3     8 ar  
     9     4    46 1   
    10     5     9 1   
    11     5    16 ar  
    12     7    16 ar  
    13     7    22 ar  
    14     7    47 1   
    15     8    22 ar  
    16     8    38 1   
    17     9    48 1   
    18     9    49 1   
    19    10    17 1   
    20    10    25 1   
    21    10    38 1   
    22    10    50 1   
    23    11    46 1   
    24    12    14 1   
    25    12    15 1   
    26    12    25 1   
    27    12    51 1   
    28    13    46 1   
    29    14    43 1   
    30    14    52 1   
    31    14    53 1   
    32    15    17 1   
    33    15    44 1   
    34    15    54 1   
    35    17    55 1   
    36    18    21 1   
    37    18    27 1   
    38    19    21 1   
    39    19    23 1   
    40    19    56 1   
    41    19    57 1   
    42    20    28 1   
    43    20    74 1   
    44    21    29 1   
    45    21    58 1   
    46    23    24 1   
    47    23    26 1   
    48    24    59 1   
    49    24    60 1   
    50    24    61 1   
    51    26    31 1   
    52    26    62 1   
    53    26    63 1   
    54    27    28 1   
    55    27    39 1   
    56    27    64 1   
    57    28    29 1   
    58    28    65 1   
    59    29    45 1   
    60    29    66 1   
    61    30    39 1   
    62    30    40 2   
    63    30    67 1   
    64    31    36 3   
    65    32    33 ar  
    66    32    35 ar  
    67    32    40 1   
    68    33    41 1   
    69    33    42 ar  
    70    34    37 ar  
    71    34    42 ar  
    72    34    68 1   
    73    35    37 ar  
    74    35    39 1   
    75    41    69 1   
    76    41    70 1   
    77    43    71 1   
    78    44    72 1   
    79    45    73 1   
@<TRIPOS>SUBSTRUCTURE
     1 K28         1 TEMP              0 ****  ****    0 ROOT
