@<TRIPOS>MOLECULE
K29
   44    48     1     0     0
SMALL
abcg2


@<TRIPOS>ATOM
      1 O01         -6.0920     0.0180    -0.4620 o          1 K29      -0.698000
      2 C02         -4.9900     0.1710     0.0940 c          1 K29       0.730000
      3 O03         -4.6930     0.0020     1.2830 o          1 K29      -0.698000
      4 C04         -3.8590     0.6410    -0.8670 c5         1 K29      -0.074300
      5 C05         -3.6180    -0.3450    -1.9980 c5         1 K29       0.059600
      6 S06         -2.5020    -1.5920    -1.2820 ss         1 K29      -0.315600
      7 C07         -1.8400    -0.3980    -0.1880 cc         1 K29       0.238200
      8 C08         -0.6970    -0.5510     0.5450 cd         1 K29      -0.194200
      9 C09          0.0770    -1.8190     0.4780 cx         1 K29      -0.046500
     10 C10         -0.6040    -3.1410     0.7130 cx         1 K29      -0.134900
     11 C11          0.3610    -2.6110     1.7210 cx         1 K29      -0.134900
     12 C12         -0.2850     0.5820     1.3030 cd         1 K29       0.026800
     13 C13          1.0370     0.5710     2.0250 c3         1 K29       0.009100
     14 C14          2.1980     0.5480     1.0660 ca         1 K29      -0.103300
     15 C15          2.3150     1.5510     0.0710 ca         1 K29       0.368900
     16 N16          3.2860     1.6270    -0.7970 nb         1 K29      -0.669000
     17 C17          4.2600     0.6850    -0.7590 ca         1 K29       0.262000
     18 C18          5.3160     0.7530    -1.6940 ca         1 K29      -0.080000
     19 C19          6.3150    -0.1830    -1.6770 ca         1 K29      -0.115000
     20 C20          6.3030    -1.2280    -0.7290 ca         1 K29      -0.118000
     21 C21          5.2910    -1.3170     0.1880 ca         1 K29      -0.091000
     22 C22          4.2490    -0.3630     0.1940 ca         1 K29      -0.079000
     23 C23          3.1780    -0.4030     1.1130 ca         1 K29      -0.074000
     24 C24         -1.0520     1.7110     1.3360 cc         1 K29      -0.348200
     25 C25         -2.2870     1.8300     0.6200 c          1 K29       0.580200
     26 O26         -3.0350     2.8060     0.6420 o          1 K29      -0.570000
     27 N27         -2.5830     0.7360    -0.1730 n          1 K29      -0.221000
     28 H041        -4.1210     1.6170    -1.2770 h1         1 K29       0.092700
     29 H052        -4.5390    -0.8190    -2.3250 h1         1 K29       0.074700
     30 H051        -3.1310     0.1190    -2.8550 h1         1 K29       0.074700
     31 H091         0.8680    -1.8420    -0.2660 hc         1 K29       0.070700
     32 H102        -1.6530    -3.1390     0.9830 hc         1 K29       0.069450
     33 H101        -0.3040    -3.9760     0.0940 hc         1 K29       0.069450
     34 H112         1.3340    -3.0780     1.8090 hc         1 K29       0.069450
     35 H111        -0.0470    -2.2540     2.6580 hc         1 K29       0.069450
     36 H131         1.1040     1.4620     2.6530 hc         1 K29       0.056700
     37 H132         1.1070    -0.2880     2.6920 hc         1 K29       0.056700
     38 H151         1.5530     2.3230     0.0090 h4         1 K29       0.032100
     39 H181         5.3150     1.5580    -2.4180 ha         1 K29       0.126000
     40 H191         7.1220    -0.1260    -2.3960 ha         1 K29       0.107000
     41 H201         7.1010    -1.9580    -0.7290 ha         1 K29       0.106000
     42 H211         5.2770    -2.1170     0.9180 ha         1 K29       0.110000
     43 H231         3.1420    -1.1960     1.8520 ha         1 K29       0.117000
     44 H241        -0.7390     2.5690     1.9180 ha         1 K29       0.187000
@<TRIPOS>BOND
     1     1     2 1   
     2     2     3 1   
     3     2     4 1   
     4     4     5 1   
     5     4    27 1   
     6     4    28 1   
     7     5     6 1   
     8     5    29 1   
     9     5    30 1   
    10     6     7 1   
    11     7     8 2   
    12     7    27 1   
    13     8     9 1   
    14     8    12 1   
    15     9    10 1   
    16     9    11 1   
    17     9    31 1   
    18    10    11 1   
    19    10    32 1   
    20    10    33 1   
    21    11    34 1   
    22    11    35 1   
    23    12    13 1   
    24    12    24 2   
    25    13    14 1   
    26    13    36 1   
    27    13    37 1   
    28    14    15 ar  
    29    14    23 ar  
    30    15    16 ar  
    31    15    38 1   
    32    16    17 ar  
    33    17    18 ar  
    34    17    22 ar  
    35    18    19 ar  
    36    18    39 1   
    37    19    20 ar  
    38    19    40 1   
    39    20    21 ar  
    40    20    41 1   
    41    21    22 ar  
    42    21    42 1   
    43    22    23 ar  
    44    23    43 1   
    45    24    25 1   
    46    24    44 1   
    47    25    26 2   
    48    25    27 1   
@<TRIPOS>SUBSTRUCTURE
     1 K29         1 TEMP              0 ****  ****    0 ROOT
