@<TRIPOS>MOLECULE
K29
   44    48     1     0     0
SMALL
No Charge or Current Charge


@<TRIPOS>ATOM
      1 O01         -6.4170     0.3180    -0.4590 o          1 K29      -0.698000
      2 C02         -5.3050     0.1720     0.0290 c          1 K29       0.730000
      3 O03         -5.1480    -0.3310     1.1340 o          1 K29      -0.698000
      4 C04         -4.0840     0.7320    -0.7530 c5         1 K29      -0.074300
      5 C05         -3.7420    -0.2420    -1.9310 c5         1 K29       0.059600
      6 S06         -2.5660    -1.5320    -1.2700 ss         1 K29      -0.315600
      7 C07         -1.9980    -0.3280    -0.1310 cc         1 K29       0.238200
      8 C08         -0.7540    -0.4870     0.4670 cd         1 K29      -0.194200
      9 C09          0.1180    -1.6910     0.2540 cx         1 K29      -0.046500
     10 C10         -0.3930    -3.1010     0.4790 cx         1 K29      -0.134900
     11 C11          0.6220    -2.5190     1.4200 cx         1 K29      -0.134900
     12 C12         -0.3020     0.6050     1.3260 cd         1 K29       0.026800
     13 C13          1.0670     0.6390     1.9830 c3         1 K29       0.009100
     14 C14          2.2320     0.5580     1.0020 ca         1 K29      -0.103300
     15 C15          2.2360     1.3360    -0.1730 ca         1 K29       0.368900
     16 N16          3.2380     1.3000    -1.0850 nb         1 K29      -0.669000
     17 C17          4.2880     0.4750    -0.8610 ca         1 K29       0.262000
     18 C18          5.3400     0.4140    -1.7940 ca         1 K29      -0.080000
     19 C19          6.4430    -0.4350    -1.5880 ca         1 K29      -0.115000
     20 C20          6.5050    -1.2370    -0.4370 ca         1 K29      -0.118000
     21 C21          5.4670    -1.1900     0.5060 ca         1 K29      -0.091000
     22 C22          4.3630    -0.3400     0.2980 ca         1 K29      -0.079000
     23 C23          3.3230    -0.2950     1.2430 ca         1 K29      -0.074000
     24 C24         -1.1790     1.6630     1.5130 cc         1 K29      -0.348200
     25 C25         -2.4980     1.7990     0.8840 c          1 K29       0.580200
     26 O26         -3.2360     2.7540     1.0840 o          1 K29      -0.570000
     27 N27         -2.8100     0.7610     0.0110 n          1 K29      -0.221000
     28 H041        -4.3590     1.7260    -1.1270 h1         1 K29       0.092700
     29 H052        -4.6320    -0.7120    -2.3710 h1         1 K29       0.074700
     30 H051        -3.2280     0.3060    -2.7310 h1         1 K29       0.074700
     31 H091         0.8070    -1.5600    -0.5780 hc         1 K29       0.070700
     32 H102        -1.4030    -3.2320     0.8600 hc         1 K29       0.069450
     33 H101        -0.0630    -3.8730    -0.2110 hc         1 K29       0.069450
     34 H112         1.6390    -2.8990     1.3680 hc         1 K29       0.069450
     35 H111         0.2750    -2.2790     2.4220 hc         1 K29       0.069450
     36 H131         1.1770     1.5650     2.5610 hc         1 K29       0.056700
     37 H132         1.1380    -0.1560     2.7330 hc         1 K29       0.056700
     38 H151         1.4110     2.0120    -0.3940 h4         1 K29       0.032100
     39 H181         5.2990     1.0310    -2.6880 ha         1 K29       0.126000
     40 H191         7.2470    -0.4690    -2.3200 ha         1 K29       0.107000
     41 H201         7.3580    -1.8930    -0.2770 ha         1 K29       0.106000
     42 H211         5.5200    -1.8140     1.3960 ha         1 K29       0.110000
     43 H231         3.3590    -0.9110     2.1380 ha         1 K29       0.117000
     44 H241        -0.9170     2.4970     2.1530 ha         1 K29       0.187000
@<TRIPOS>BOND
     1     1     2 1   
     2     2     3 1   
     3     2     4 1   
     4     4     5 1   
     5     4    27 1   
     6     4    28 1   
     7     5     6 1   
     8     5    29 1   
     9     5    30 1   
    10     6     7 1   
    11     7     8 2   
    12     7    27 1   
    13     8     9 1   
    14     8    12 1   
    15     9    10 1   
    16     9    11 1   
    17     9    31 1   
    18    10    11 1   
    19    10    32 1   
    20    10    33 1   
    21    11    34 1   
    22    11    35 1   
    23    12    13 1   
    24    12    24 2   
    25    13    14 1   
    26    13    36 1   
    27    13    37 1   
    28    14    15 ar  
    29    14    23 ar  
    30    15    16 ar  
    31    15    38 1   
    32    16    17 ar  
    33    17    18 ar  
    34    17    22 ar  
    35    18    19 ar  
    36    18    39 1   
    37    19    20 ar  
    38    19    40 1   
    39    20    21 ar  
    40    20    41 1   
    41    21    22 ar  
    42    21    42 1   
    43    22    23 ar  
    44    23    43 1   
    45    24    25 1   
    46    24    44 1   
    47    25    26 2   
    48    25    27 1   
@<TRIPOS>SUBSTRUCTURE
     1 K29         1 TEMP              0 ****  ****    0 ROOT
