@<TRIPOS>MOLECULE
K2A
   80    83     1     0     0
SMALL
No Charge or Current Charge


@<TRIPOS>ATOM
      1 C1          14.3930    35.2040    18.9100 c3         1 K2A       0.197900
      2 O1          14.9910    34.9240    20.1830 oh         1 K2A      -0.661000
      3 C2          15.2510    34.6470    17.7800 ca         1 K2A      -0.032300
      4 C3          15.0410    33.3370    17.3050 ca         1 K2A      -0.109000
      5 C4          15.8270    32.8220    16.2600 ca         1 K2A      -0.019500
      6 C5          16.8390    33.6140    15.6800 ca         1 K2A      -0.306500
      7 C6          17.0470    34.9290    16.1480 ca         1 K2A      -0.019500
      8 C7          16.2580    35.4380    17.1940 ca         1 K2A      -0.109000
      9 S8          17.8560    32.9580    14.3430 sy         1 K2A       1.190600
     10 O9          18.3790    34.0610    13.5290 o          1 K2A      -0.544000
     11 O10         17.1730    31.8280    13.7060 o          1 K2A      -0.544000
     12 N11         19.1960    32.2970    15.1740 n3         1 K2A      -0.748500
     13 C12         20.0200    33.3230    15.8720 c3         1 K2A       0.204800
     14 C13         21.4540    32.8890    16.2860 c3         1 K2A      -0.060700
     15 C14         22.3260    32.5220    15.0580 c3         1 K2A      -0.089100
     16 C15         22.1440    33.9400    17.2020 c3         1 K2A      -0.075400
     17 C16         18.8630    31.1130    16.0250 c3         1 K2A       0.213800
     18 C17         19.7540    29.8560    15.7790 c3         1 K2A       0.155300
     19 C18         22.3820    35.3320    16.5720 c3         1 K2A      -0.090100
     20 O18         19.5280    28.8830    16.8200 oh         1 K2A      -0.671000
     21 C19         19.5590    29.2110    14.3710 c3         1 K2A       0.098700
     22 N20         20.6330    28.2520    14.0720 ns         1 K2A      -0.502900
     23 C21         21.6830    28.4950    13.2350 c          1 K2A       0.635100
     24 O22         21.9140    29.5620    12.6890 o          1 K2A      -0.538000
     25 O23         22.3760    27.3280    13.0740 os         1 K2A      -0.459100
     26 C24         23.4690    27.3840    12.1100 c5         1 K2A       0.160300
     27 C25         24.4780    26.2700    12.5000 c5         1 K2A       0.152600
     28 O26         23.9350    25.0820    11.8970 os         1 K2A      -0.467000
     29 C27         23.5110    25.4420    10.5720 c5         1 K2A       0.367300
     30 O28         22.3350    24.6710    10.2650 os         1 K2A      -0.446000
     31 C29         21.2160    25.3540    10.8600 c5         1 K2A       0.150600
     32 C30         21.4800    26.8180    10.4430 c5         1 K2A      -0.094400
     33 C31         23.0350    26.9320    10.6540 c5         1 K2A      -0.140700
     34 C32         18.1780    28.5370    14.1390 c3         1 K2A      -0.041100
     35 C33         18.0580    28.7750    11.6060 ca         1 K2A      -0.101000
     36 C34         17.9390    28.2280    10.3170 ca         1 K2A      -0.115500
     37 C35         17.7960    26.8400    10.1530 ca         1 K2A      -0.115000
     38 C36         17.7710    26.0010    11.2790 ca         1 K2A      -0.115500
     39 C37         17.8950    26.5470    12.5680 ca         1 K2A      -0.101000
     40 C38         18.0390    27.9390    12.7400 ca         1 K2A      -0.084300
     41 H1          13.3900    34.7600    18.8540 h1         1 K2A       0.034700
     42 H1A         14.2770    36.2880    18.7730 h1         1 K2A       0.034700
     43 HO1         14.3960    35.3060    20.8650 ho         1 K2A       0.444000
     44 H3          14.2650    32.7170    17.7490 ha         1 K2A       0.121500
     45 H4          15.6420    31.8090    15.9070 ha         1 K2A       0.134000
     46 H6          17.8190    35.5580    15.7080 ha         1 K2A       0.134000
     47 H7          16.4300    36.4500    17.5500 ha         1 K2A       0.121500
     48 H12         20.1410    34.2050    15.2300 h1         1 K2A       0.052700
     49 H12A        19.4910    33.6640    16.7720 h1         1 K2A       0.052700
     50 H13         21.3660    31.9900    16.9050 hc         1 K2A       0.043700
     51 H14         23.3250    32.1970    15.3730 hc         1 K2A       0.044700
     52 H14A        21.8720    31.7060    14.4850 hc         1 K2A       0.044700
     53 H14B        22.4380    33.3770    14.3810 hc         1 K2A       0.044700
     54 H15         21.5400    34.0690    18.1090 hc         1 K2A       0.039200
     55 H15A        23.1100    33.5400    17.5350 hc         1 K2A       0.039200
     56 H16         18.9450    31.3860    17.0860 h1         1 K2A       0.065700
     57 H16A        17.8210    30.8000    15.8930 h1         1 K2A       0.065700
     58 H17         20.7980    30.1830    15.8320 h1         1 K2A       0.053700
     59 H18         22.8740    35.9920    17.2960 hc         1 K2A       0.034033
     60 H18A        23.0280    35.2650    15.6890 hc         1 K2A       0.034033
     61 H18B        21.4370    35.8040    16.2790 hc         1 K2A       0.034033
     62 HO18        20.2440    28.2140    16.7470 ho         1 K2A       0.450000
     63 H19         19.6360    30.0320    13.6450 h1         1 K2A       0.099700
     64 HN20        20.5470    27.2980    14.3960 hn         1 K2A       0.322500
     65 H24         23.9610    28.3660    12.1320 h1         1 K2A       0.087700
     66 H25         25.4740    26.4660    12.0790 h1         1 K2A       0.062200
     67 H25A        24.5720    26.1370    13.5860 h1         1 K2A       0.062200
     68 H27         24.3130    25.2850     9.8380 h2         1 K2A       0.082700
     69 H29         20.2740    24.9560    10.4610 h1         1 K2A       0.056700
     70 H29A        21.2330    25.2160    11.9500 h1         1 K2A       0.056700
     71 H30         21.2260    26.9520     9.3860 hc         1 K2A       0.066700
     72 H30A        20.8710    27.5420    10.9900 hc         1 K2A       0.066700
     73 H31         23.5130    27.5500     9.8860 hc         1 K2A       0.077700
     74 H32         18.0240    27.7590    14.8960 hc         1 K2A       0.067200
     75 H32A        17.3770    29.2660    14.2960 hc         1 K2A       0.067200
     76 H34         17.9570    28.8790     9.4460 ha         1 K2A       0.112500
     77 H35         17.7030    26.4160     9.1550 ha         1 K2A       0.110000
     78 H36         17.6570    24.9260    11.1540 ha         1 K2A       0.112500
     79 H37         17.8780    25.8870    13.4320 ha         1 K2A       0.120000
     80 H33         18.1630    29.8520    11.7230 ha         1 K2A       0.120000
@<TRIPOS>BOND
     1     1     2 1   
     2     1     3 1   
     3     1    41 1   
     4     1    42 1   
     5     2    43 1   
     6     3     4 ar  
     7     3     8 ar  
     8     4     5 ar  
     9     4    44 1   
    10     5     6 ar  
    11     5    45 1   
    12     6     7 ar  
    13     6     9 1   
    14     7     8 ar  
    15     7    46 1   
    16     8    47 1   
    17     9    10 2   
    18     9    11 2   
    19     9    12 1   
    20    12    13 1   
    21    12    17 1   
    22    13    14 1   
    23    13    48 1   
    24    13    49 1   
    25    14    15 1   
    26    14    16 1   
    27    14    50 1   
    28    15    51 1   
    29    15    52 1   
    30    15    53 1   
    31    16    19 1   
    32    16    54 1   
    33    16    55 1   
    34    17    18 1   
    35    17    56 1   
    36    17    57 1   
    37    18    20 1   
    38    18    21 1   
    39    18    58 1   
    40    19    59 1   
    41    19    60 1   
    42    19    61 1   
    43    20    62 1   
    44    21    22 1   
    45    21    34 1   
    46    21    63 1   
    47    22    23 1   
    48    22    64 1   
    49    23    24 2   
    50    23    25 1   
    51    25    26 1   
    52    26    27 1   
    53    26    33 1   
    54    26    65 1   
    55    27    28 1   
    56    27    66 1   
    57    27    67 1   
    58    28    29 1   
    59    29    30 1   
    60    29    33 1   
    61    29    68 1   
    62    30    31 1   
    63    31    32 1   
    64    31    69 1   
    65    31    70 1   
    66    32    33 1   
    67    32    71 1   
    68    32    72 1   
    69    33    73 1   
    70    34    40 1   
    71    34    74 1   
    72    34    75 1   
    73    35    36 ar  
    74    35    40 ar  
    75    35    80 1   
    76    36    37 ar  
    77    36    76 1   
    78    37    38 ar  
    79    37    77 1   
    80    38    39 ar  
    81    38    78 1   
    82    39    40 ar  
    83    39    79 1   
@<TRIPOS>SUBSTRUCTURE
     1 K2A         1 TEMP              0 ****  ****    0 ROOT
