@<TRIPOS>MOLECULE
K2A
   80    83     1     0     0
SMALL
abcg2


@<TRIPOS>ATOM
      1 C1          14.3690    35.6450    18.3660 c3         1 K2A       0.197900
      2 O1          14.9100    35.4610    19.6850 oh         1 K2A      -0.661000
      3 C2          15.2390    34.8930    17.4000 ca         1 K2A      -0.032300
      4 C3          15.0220    33.5350    17.1640 ca         1 K2A      -0.109000
      5 C4          15.8420    32.8240    16.3000 ca         1 K2A      -0.019500
      6 C5          16.8880    33.4850    15.6590 ca         1 K2A      -0.306500
      7 C6          17.1170    34.8410    15.8760 ca         1 K2A      -0.019500
      8 C7          16.2890    35.5360    16.7460 ca         1 K2A      -0.109000
      9 S8          17.9830    32.5640    14.6130 sy         1 K2A       1.190600
     10 O9          18.5900    33.4910    13.6870 o          1 K2A      -0.544000
     11 O10         17.2600    31.4270    14.0960 o          1 K2A      -0.544000
     12 N11         19.1770    31.9810    15.5820 n3         1 K2A      -0.748500
     13 C12         20.0230    33.0030    16.2330 c3         1 K2A       0.204800
     14 C13         21.4930    32.5990    16.3610 c3         1 K2A      -0.060700
     15 C14         22.1370    32.3660    14.9960 c3         1 K2A      -0.089100
     16 C15         22.2490    33.6380    17.2080 c3         1 K2A      -0.075400
     17 C16         18.8870    30.7760    16.3750 c3         1 K2A       0.213800
     18 C17         19.7850    29.5930    16.0050 c3         1 K2A       0.155300
     19 C18         22.3250    35.0490    16.6220 c3         1 K2A      -0.090100
     20 O18         19.5120    28.5930    16.9870 oh         1 K2A      -0.671000
     21 C19         19.5900    29.0840    14.5680 c3         1 K2A       0.098700
     22 N20         20.7000    28.2210    14.1890 ns         1 K2A      -0.502900
     23 C21         21.5720    28.5370    13.2130 c          1 K2A       0.635100
     24 O22         21.6220    29.6000    12.6160 o          1 K2A      -0.538000
     25 O23         22.4130    27.4990    12.9800 os         1 K2A      -0.459100
     26 C24         23.3920    27.6660    11.9350 c5         1 K2A       0.160300
     27 C25         24.5690    26.7660    12.2640 c5         1 K2A       0.152600
     28 O26         24.2230    25.4810    11.7420 os         1 K2A      -0.467000
     29 C27         23.5140    25.6810    10.5160 c5         1 K2A       0.367300
     30 O28         22.4590    24.7680    10.4030 os         1 K2A      -0.446000
     31 C29         21.2480    25.4090    10.8580 c5         1 K2A       0.150600
     32 C30         21.4040    26.8600    10.4180 c5         1 K2A      -0.094400
     33 C31         22.9090    27.1090    10.5810 c5         1 K2A      -0.140700
     34 C32         18.2610    28.3550    14.3390 c3         1 K2A      -0.041100
     35 C33         17.9550    28.8840    11.8870 ca         1 K2A      -0.101000
     36 C34         17.7990    28.4940    10.5620 ca         1 K2A      -0.115500
     37 C35         17.7620    27.1430    10.2270 ca         1 K2A      -0.115000
     38 C36         17.8840    26.1870    11.2290 ca         1 K2A      -0.115500
     39 C37         18.0470    26.5820    12.5540 ca         1 K2A      -0.101000
     40 C38         18.0790    27.9320    12.9030 ca         1 K2A      -0.084300
     41 H1          13.3450    35.2610    18.3230 h1         1 K2A       0.034700
     42 H1A         14.3540    36.7080    18.1080 h1         1 K2A       0.034700
     43 HO1         14.3320    35.9190    20.3080 ho         1 K2A       0.444000
     44 H3          14.1990    33.0310    17.6570 ha         1 K2A       0.121500
     45 H4          15.6620    31.7760    16.1100 ha         1 K2A       0.134000
     46 H6          17.9220    35.3470    15.3630 ha         1 K2A       0.134000
     47 H7          16.4580    36.5930    16.9150 ha         1 K2A       0.121500
     48 H12         19.9590    33.9080    15.6350 h1         1 K2A       0.052700
     49 H12A        19.6100    33.2230    17.2240 h1         1 K2A       0.052700
     50 H13         21.5380    31.6640    16.9270 hc         1 K2A       0.043700
     51 H14         23.1890    32.0980    15.1110 hc         1 K2A       0.044700
     52 H14A        21.6420    31.5600    14.4550 hc         1 K2A       0.044700
     53 H14B        22.0810    33.2620    14.3740 hc         1 K2A       0.044700
     54 H15         21.7810    33.6860    18.1960 hc         1 K2A       0.039200
     55 H15A        23.2640    33.2620    17.3670 hc         1 K2A       0.039200
     56 H16         19.0500    31.0090    17.4290 h1         1 K2A       0.065700
     57 H16A        17.8440    30.4910    16.2620 h1         1 K2A       0.065700
     58 H17         20.8270    29.9060    16.0860 h1         1 K2A       0.053700
     59 H18         22.8930    35.7030    17.2850 hc         1 K2A       0.034033
     60 H18A        22.8200    35.0560    15.6490 hc         1 K2A       0.034033
     61 H18B        21.3350    35.4910    16.4950 hc         1 K2A       0.034033
     62 HO18        20.2130    27.9300    16.9600 ho         1 K2A       0.450000
     63 H19         19.6480    29.9510    13.9130 h1         1 K2A       0.099700
     64 HN20        20.7150    27.2710    14.5300 hn         1 K2A       0.322500
     65 H24         23.6640    28.7150    11.8790 h1         1 K2A       0.087700
     66 H25         25.4740    27.1480    11.7800 h1         1 K2A       0.062200
     67 H25A        24.7450    26.6700    13.3340 h1         1 K2A       0.062200
     68 H27         24.1940    25.5070     9.6790 h2         1 K2A       0.082700
     69 H29         20.4120    24.8910    10.3950 h1         1 K2A       0.056700
     70 H29A        21.1650    25.3280    11.9450 h1         1 K2A       0.056700
     71 H30         21.1290    26.9600     9.3670 hc         1 K2A       0.066700
     72 H30A        20.7790    27.5410    10.9890 hc         1 K2A       0.066700
     73 H31         23.3040    27.7370     9.7860 hc         1 K2A       0.077700
     74 H32         18.2200    27.4780    14.9880 hc         1 K2A       0.067200
     75 H32A        17.4500    29.0200    14.6340 hc         1 K2A       0.067200
     76 H34         17.7060    29.2460     9.7880 ha         1 K2A       0.112500
     77 H35         17.6430    26.8390     9.1950 ha         1 K2A       0.110000
     78 H36         17.8620    25.1340    10.9800 ha         1 K2A       0.112500
     79 H37         18.1510    25.8320    13.3300 ha         1 K2A       0.120000
     80 H33         17.9760    29.9360    12.1410 ha         1 K2A       0.120000
@<TRIPOS>BOND
     1     1     2 1   
     2     1     3 1   
     3     1    41 1   
     4     1    42 1   
     5     2    43 1   
     6     3     4 ar  
     7     3     8 ar  
     8     4     5 ar  
     9     4    44 1   
    10     5     6 ar  
    11     5    45 1   
    12     6     7 ar  
    13     6     9 1   
    14     7     8 ar  
    15     7    46 1   
    16     8    47 1   
    17     9    10 2   
    18     9    11 2   
    19     9    12 1   
    20    12    13 1   
    21    12    17 1   
    22    13    14 1   
    23    13    48 1   
    24    13    49 1   
    25    14    15 1   
    26    14    16 1   
    27    14    50 1   
    28    15    51 1   
    29    15    52 1   
    30    15    53 1   
    31    16    19 1   
    32    16    54 1   
    33    16    55 1   
    34    17    18 1   
    35    17    56 1   
    36    17    57 1   
    37    18    20 1   
    38    18    21 1   
    39    18    58 1   
    40    19    59 1   
    41    19    60 1   
    42    19    61 1   
    43    20    62 1   
    44    21    22 1   
    45    21    34 1   
    46    21    63 1   
    47    22    23 1   
    48    22    64 1   
    49    23    24 2   
    50    23    25 1   
    51    25    26 1   
    52    26    27 1   
    53    26    33 1   
    54    26    65 1   
    55    27    28 1   
    56    27    66 1   
    57    27    67 1   
    58    28    29 1   
    59    29    30 1   
    60    29    33 1   
    61    29    68 1   
    62    30    31 1   
    63    31    32 1   
    64    31    69 1   
    65    31    70 1   
    66    32    33 1   
    67    32    71 1   
    68    32    72 1   
    69    33    73 1   
    70    34    40 1   
    71    34    74 1   
    72    34    75 1   
    73    35    36 ar  
    74    35    40 ar  
    75    35    80 1   
    76    36    37 ar  
    77    36    76 1   
    78    37    38 ar  
    79    37    77 1   
    80    38    39 ar  
    81    38    78 1   
    82    39    40 ar  
    83    39    79 1   
@<TRIPOS>SUBSTRUCTURE
     1 K2A         1 TEMP              0 ****  ****    0 ROOT
