@<TRIPOS>MOLECULE
K2B
   72    75     1     0     0
SMALL
bcc


@<TRIPOS>ATOM
      1 C1          -4.5330    -1.5480     0.7310 c6         1 K2B      -0.064400
      2 C2          -6.0520    -1.5660     0.7800 c6         1 K2B      -0.181400
      3 C3          -6.5990    -0.2290     1.1950 c          1 K2B       0.575300
      4 C4          -5.8420     0.9340     0.7410 ce         1 K2B      -0.270200
      5 C5          -4.6800     0.8540     0.0710 c2         1 K2B      -0.030400
      6 C6          -4.0600     2.0880    -0.5050 c6         1 K2B      -0.051200
      7 C7          -2.5840     2.2140    -0.1470 c6         1 K2B      -0.069400
      8 C8          -1.8140     0.9560    -0.5210 c6         1 K2B      -0.044700
      9 C9          -2.4490    -0.2730     0.1480 c6         1 K2B      -0.045700
     10 C10         -3.9590    -0.4560    -0.1820 c6         1 K2B      -0.010800
     11 C11         -1.6270    -1.5380    -0.1190 c6         1 K2B      -0.072400
     12 C12         -0.1440    -1.3900     0.2330 c6         1 K2B      -0.062400
     13 C13          0.4930    -0.1850    -0.4620 c5         1 K2B      -0.036000
     14 C14         -0.3580     1.0430    -0.0950 c5         1 K2B      -0.064700
     15 C15          0.4720     2.2280    -0.5730 c5         1 K2B      -0.072400
     16 C16          1.9230     1.7780    -0.3130 c5         1 K2B      -0.076400
     17 C17          1.8710     0.2750     0.0760 c5         1 K2B      -0.053700
     18 C18          0.5680    -0.4060    -1.9760 c3         1 K2B      -0.079100
     19 C19         -4.1810    -0.8340    -1.6580 c3         1 K2B      -0.081100
     20 C20          3.1390    -0.4780    -0.3530 c3         1 K2B      -0.046700
     21 C21          3.0700    -1.9760    -0.0690 c3         1 K2B      -0.086100
     22 C22          4.3620     0.1450     0.3370 c3         1 K2B      -0.076400
     23 C23          5.7180    -0.3760    -0.1280 c3         1 K2B      -0.074400
     24 C24          6.8710     0.3610     0.5430 c3         1 K2B      -0.073400
     25 C25          8.2680    -0.0700     0.0920 c3         1 K2B      -0.059700
     26 C27          9.3260     0.8400     0.7090 c3         1 K2B      -0.087600
     27 C26          8.5630    -1.5270     0.4380 c3         1 K2B      -0.087600
     28 O1          -7.6400    -0.1100     1.8200 o          1 K2B      -0.530100
     29 H11C        -4.1530    -1.3930     1.7470 hc         1 K2B       0.048700
     30 H12C        -4.1750    -2.5270     0.4120 hc         1 K2B       0.048700
     31 H21C        -6.4680    -1.7970    -0.2080 hc         1 K2B       0.069200
     32 H22C        -6.4140    -2.3410     1.4580 hc         1 K2B       0.069200
     33 H4          -6.2960     1.9060     0.9130 ha         1 K2B       0.145000
     34 H61C        -4.1570     2.0400    -1.5960 hc         1 K2B       0.053700
     35 H62C        -4.6150     2.9720    -0.1850 hc         1 K2B       0.053700
     36 H71C        -2.1660     3.0870    -0.6540 hc         1 K2B       0.045200
     37 H72C        -2.4830     2.3980     0.9290 hc         1 K2B       0.045200
     38 H8          -1.8600     0.8450    -1.6130 hc         1 K2B       0.052700
     39 H9          -2.3990    -0.0850     1.2310 hc         1 K2B       0.048700
     40 H14         -0.3620     1.0860     1.0070 hc         1 K2B       0.044700
     41 H111        -2.0310    -2.3760     0.4530 hc         1 K2B       0.039700
     42 H112        -1.7220    -1.8260    -1.1690 hc         1 K2B       0.039700
     43 H191        -5.2440    -0.8700    -1.9030 hc         1 K2B       0.037700
     44 H192        -3.7150    -0.1250    -2.3430 hc         1 K2B       0.037700
     45 H193        -3.7650    -1.8180    -1.8730 hc         1 K2B       0.037700
     46 H121        -0.0370    -1.2680     1.3170 hc         1 K2B       0.041700
     47 H122         0.3590    -2.3240    -0.0240 hc         1 K2B       0.041700
     48 H17          1.8120     0.2040     1.1720 hc         1 K2B       0.044700
     49 H181        -0.4080    -0.5970    -2.4230 hc         1 K2B       0.032367
     50 H182         0.9940     0.4510    -2.4990 hc         1 K2B       0.032367
     51 H183         1.1960    -1.2670    -2.2130 hc         1 K2B       0.032367
     52 H151         0.2970     2.4190    -1.6350 hc         1 K2B       0.042200
     53 H152         0.2220     3.1510    -0.0460 hc         1 K2B       0.042200
     54 H161         2.5430     1.9160    -1.2020 hc         1 K2B       0.041700
     55 H162         2.3840     2.3720     0.4770 hc         1 K2B       0.041700
     56 H20          3.2630    -0.3390    -1.4360 hc         1 K2B       0.045700
     57 H211         4.0120    -2.4730    -0.3000 hc         1 K2B       0.032700
     58 H212         2.8460    -2.1630     0.9840 hc         1 K2B       0.032700
     59 H213         2.3030    -2.4710    -0.6620 hc         1 K2B       0.032700
     60 H221         4.3510     1.2280     0.1840 hc         1 K2B       0.037200
     61 H222         4.2700    -0.0030     1.4200 hc         1 K2B       0.037200
     62 H231         5.8020    -1.4460     0.0730 hc         1 K2B       0.038700
     63 H232         5.7980    -0.2630    -1.2160 hc         1 K2B       0.038700
     64 H241         6.7580     1.4350     0.3570 hc         1 K2B       0.036200
     65 H242         6.7950     0.2370     1.6310 hc         1 K2B       0.036200
     66 H25          8.3180     0.0400    -0.9990 hc         1 K2B       0.043700
     67 H261         9.5660    -1.8120     0.1160 hc         1 K2B       0.031533
     68 H262         8.5050    -1.6850     1.5180 hc         1 K2B       0.031533
     69 H263         7.8620    -2.2160    -0.0350 hc         1 K2B       0.031533
     70 H271         9.3090     0.7680     1.7990 hc         1 K2B       0.031533
     71 H272        10.3300     0.5710     0.3760 hc         1 K2B       0.031533
     72 H273         9.1590     1.8860     0.4450 hc         1 K2B       0.031533
@<TRIPOS>BOND
     1     1     2 1   
     2     1    10 1   
     3     1    29 1   
     4     1    30 1   
     5     2     3 1   
     6     2    31 1   
     7     2    32 1   
     8     3     4 1   
     9     3    28 2   
    10     4     5 2   
    11     4    33 1   
    12     5     6 1   
    13     5    10 1   
    14     6     7 1   
    15     6    34 1   
    16     6    35 1   
    17     7     8 1   
    18     7    36 1   
    19     7    37 1   
    20     8     9 1   
    21     8    14 1   
    22     8    38 1   
    23     9    10 1   
    24     9    11 1   
    25     9    39 1   
    26    10    19 1   
    27    11    12 1   
    28    11    41 1   
    29    11    42 1   
    30    12    13 1   
    31    12    46 1   
    32    12    47 1   
    33    13    14 1   
    34    13    17 1   
    35    13    18 1   
    36    14    15 1   
    37    14    40 1   
    38    15    16 1   
    39    15    52 1   
    40    15    53 1   
    41    16    17 1   
    42    16    54 1   
    43    16    55 1   
    44    17    20 1   
    45    17    48 1   
    46    18    49 1   
    47    18    50 1   
    48    18    51 1   
    49    19    43 1   
    50    19    44 1   
    51    19    45 1   
    52    20    21 1   
    53    20    22 1   
    54    20    56 1   
    55    21    57 1   
    56    21    58 1   
    57    21    59 1   
    58    22    23 1   
    59    22    60 1   
    60    22    61 1   
    61    23    24 1   
    62    23    62 1   
    63    23    63 1   
    64    24    25 1   
    65    24    64 1   
    66    24    65 1   
    67    25    26 1   
    68    25    27 1   
    69    25    66 1   
    70    26    70 1   
    71    26    71 1   
    72    26    72 1   
    73    27    67 1   
    74    27    68 1   
    75    27    69 1   
@<TRIPOS>SUBSTRUCTURE
     1 K2B         1 TEMP              0 ****  ****    0 ROOT
