@<TRIPOS>MOLECULE
K2B
   72    75     1     0     0
SMALL
No Charge or Current Charge


@<TRIPOS>ATOM
      1 C1          -4.6520    -1.5940     0.7070 c6         1 K2B      -0.064400
      2 C2          -6.1970    -1.5790     0.7830 c6         1 K2B      -0.181400
      3 C3          -6.7110    -0.2230     1.2590 c          1 K2B       0.575300
      4 C4          -5.9800     0.9570     0.7400 ce         1 K2B      -0.320200
      5 C5          -4.7830     0.8880     0.1080 c2         1 K2B      -0.030400
      6 C6          -4.1170     2.1550    -0.4210 c6         1 K2B      -0.051200
      7 C7          -2.6280     2.2360    -0.0420 c6         1 K2B      -0.069400
      8 C8          -1.8620     0.9710    -0.5060 c6         1 K2B      -0.044700
      9 C9          -2.5080    -0.3090     0.1280 c6         1 K2B      -0.045700
     10 C10         -4.0560    -0.4470    -0.1880 c6         1 K2B      -0.010800
     11 C11         -1.6750    -1.5880    -0.2310 c6         1 K2B      -0.072400
     12 C12         -0.1660    -1.4480     0.1220 c6         1 K2B      -0.062400
     13 C13          0.4900    -0.1950    -0.5440 c5         1 K2B      -0.036000
     14 C14         -0.3570     1.0470    -0.1110 c5         1 K2B      -0.064700
     15 C15          0.4700     2.2290    -0.6710 c5         1 K2B      -0.072400
     16 C16          1.9410     1.7830    -0.4050 c5         1 K2B      -0.076400
     17 C17          1.8720     0.2790     0.0680 c5         1 K2B      -0.053700
     18 C18          0.5760    -0.4400    -2.0910 c3         1 K2B      -0.079100
     19 C19         -4.3240    -0.7720    -1.6980 c3         1 K2B      -0.081100
     20 C20          3.1870    -0.5270    -0.2490 c3         1 K2B      -0.046700
     21 C21          3.0860    -2.0390     0.0840 c3         1 K2B      -0.086100
     22 C22          4.4300     0.1180     0.4480 c3         1 K2B      -0.076400
     23 C23          5.8130    -0.4240     0.0040 c3         1 K2B      -0.074400
     24 C24          6.9910     0.3880     0.5960 c3         1 K2B      -0.073400
     25 C25          8.3990    -0.0480     0.1020 c3         1 K2B      -0.059700
     26 C27          9.4860     0.9280     0.6060 c3         1 K2B      -0.087600
     27 C26          8.7520    -1.5050     0.4860 c3         1 K2B      -0.087600
     28 O1          -7.6720    -0.1190     2.0080 o          1 K2B      -0.530100
     29 H11C        -4.2630    -1.5070     1.7300 hc         1 K2B       0.048700
     30 H12C        -4.3270    -2.5780     0.3420 hc         1 K2B       0.048700
     31 H21C        -6.5800    -1.7210    -0.2350 hc         1 K2B       0.069200
     32 H22C        -6.6060    -2.3820     1.4100 hc         1 K2B       0.069200
     33 H4          -6.4530     1.9150     0.9450 ha         1 K2B       0.195000
     34 H61C        -4.2210     2.1910    -1.5140 hc         1 K2B       0.053700
     35 H62C        -4.6340     3.0470    -0.0410 hc         1 K2B       0.053700
     36 H71C        -2.1930     3.1360    -0.4960 hc         1 K2B       0.045200
     37 H72C        -2.5340     2.3560     1.0470 hc         1 K2B       0.045200
     38 H8          -1.9290     0.9150    -1.6000 hc         1 K2B       0.052700
     39 H9          -2.4230    -0.1830     1.2170 hc         1 K2B       0.048700
     40 H14         -0.3760     1.1230     0.9850 hc         1 K2B       0.044700
     41 H111        -2.0640    -2.4590     0.3110 hc         1 K2B       0.039700
     42 H112        -1.7790    -1.8300    -1.2960 hc         1 K2B       0.039700
     43 H191        -5.3910    -0.7160    -1.9380 hc         1 K2B       0.037700
     44 H192        -3.8170    -0.0730    -2.3710 hc         1 K2B       0.037700
     45 H193        -3.9890    -1.7820    -1.9640 hc         1 K2B       0.037700
     46 H121        -0.0590    -1.3930     1.2140 hc         1 K2B       0.041700
     47 H122         0.3360    -2.3690    -0.1890 hc         1 K2B       0.041700
     48 H17          1.7930     0.2620     1.1630 hc         1 K2B       0.044700
     49 H181        -0.4100    -0.5240    -2.5590 hc         1 K2B       0.032367
     50 H182         1.1070     0.3600    -2.6180 hc         1 K2B       0.032367
     51 H183         1.1140    -1.3690    -2.3120 hc         1 K2B       0.032367
     52 H151         0.2840     2.3890    -1.7390 hc         1 K2B       0.042200
     53 H152         0.2360     3.1730    -0.1650 hc         1 K2B       0.042200
     54 H161         2.5430     1.8990    -1.3140 hc         1 K2B       0.041700
     55 H162         2.4100     2.4140     0.3590 hc         1 K2B       0.041700
     56 H20          3.3680    -0.4590    -1.3290 hc         1 K2B       0.045700
     57 H211         4.0510    -2.5470     0.0000 hc         1 K2B       0.032700
     58 H212         2.7070    -2.1940     1.1010 hc         1 K2B       0.032700
     59 H213         2.4280    -2.5480    -0.6260 hc         1 K2B       0.032700
     60 H221         4.4340     1.1960     0.2530 hc         1 K2B       0.037200
     61 H222         4.3300     0.0040     1.5350 hc         1 K2B       0.037200
     62 H231         5.9160    -1.4670     0.3170 hc         1 K2B       0.038700
     63 H232         5.8750    -0.4020    -1.0910 hc         1 K2B       0.038700
     64 H241         6.8450     1.4450     0.3410 hc         1 K2B       0.036200
     65 H242         6.9560     0.3240     1.6910 hc         1 K2B       0.036200
     66 H25          8.3990     0.0110    -0.9940 hc         1 K2B       0.043700
     67 H261         9.7700    -1.7530     0.1640 hc         1 K2B       0.031533
     68 H262         8.6920    -1.6480     1.5720 hc         1 K2B       0.031533
     69 H263         8.0740    -2.2190     0.0040 hc         1 K2B       0.031533
     70 H271         9.5420     0.9180     1.7020 hc         1 K2B       0.031533
     71 H272        10.4710     0.6520     0.2090 hc         1 K2B       0.031533
     72 H273         9.2690     1.9530     0.2830 hc         1 K2B       0.031533
@<TRIPOS>BOND
     1     1     2 1   
     2     1    10 1   
     3     1    29 1   
     4     1    30 1   
     5     2     3 1   
     6     2    31 1   
     7     2    32 1   
     8     3     4 1   
     9     3    28 2   
    10     4     5 2   
    11     4    33 1   
    12     5     6 1   
    13     5    10 1   
    14     6     7 1   
    15     6    34 1   
    16     6    35 1   
    17     7     8 1   
    18     7    36 1   
    19     7    37 1   
    20     8     9 1   
    21     8    14 1   
    22     8    38 1   
    23     9    10 1   
    24     9    11 1   
    25     9    39 1   
    26    10    19 1   
    27    11    12 1   
    28    11    41 1   
    29    11    42 1   
    30    12    13 1   
    31    12    46 1   
    32    12    47 1   
    33    13    14 1   
    34    13    17 1   
    35    13    18 1   
    36    14    15 1   
    37    14    40 1   
    38    15    16 1   
    39    15    52 1   
    40    15    53 1   
    41    16    17 1   
    42    16    54 1   
    43    16    55 1   
    44    17    20 1   
    45    17    48 1   
    46    18    49 1   
    47    18    50 1   
    48    18    51 1   
    49    19    43 1   
    50    19    44 1   
    51    19    45 1   
    52    20    21 1   
    53    20    22 1   
    54    20    56 1   
    55    21    57 1   
    56    21    58 1   
    57    21    59 1   
    58    22    23 1   
    59    22    60 1   
    60    22    61 1   
    61    23    24 1   
    62    23    62 1   
    63    23    63 1   
    64    24    25 1   
    65    24    64 1   
    66    24    65 1   
    67    25    26 1   
    68    25    27 1   
    69    25    66 1   
    70    26    70 1   
    71    26    71 1   
    72    26    72 1   
    73    27    67 1   
    74    27    68 1   
    75    27    69 1   
@<TRIPOS>SUBSTRUCTURE
     1 K2B         1 TEMP              0 ****  ****    0 ROOT
