@<TRIPOS>MOLECULE
K2C
   37    42     1     0     0
SMALL
No Charge or Current Charge


@<TRIPOS>ATOM
      1 C7           1.2260     2.8170    -0.0120 c5         1 K2C       0.148300
      2 N6          -0.0490     3.5770    -0.0080 ns         1 K2C      -0.521900
      3 C22          0.7260     1.4010    -0.0110 ca         1 K2C      -0.056300
      4 C21          1.5260     0.2380    -0.0150 cp         1 K2C      -0.064000
      5 C18          0.8600    -0.9930    -0.0130 ca         1 K2C      -0.003200
      6 N12          1.8620    -1.9760    -0.0170 na         1 K2C      -0.225600
      7 C19          3.1450    -1.4020    -0.0210 ca         1 K2C      -0.009200
      8 C20          2.9620    -0.0190    -0.0200 cp         1 K2C      -0.080000
      9 C8           4.0800     0.8390    -0.0230 ca         1 K2C      -0.054000
     10 C9           5.3680     0.2590    -0.0270 ca         1 K2C      -0.141000
     11 C10          5.5320    -1.1490    -0.0290 ca         1 K2C      -0.079000
     12 C11          4.4080    -2.0030    -0.0260 ca         1 K2C      -0.139000
     13 C5          -1.1600     2.7430    -0.0050 c          1 K2C       0.587600
     14 C23         -0.6520     1.3460    -0.0070 ca         1 K2C      -0.135600
     15 C16         -1.3440     0.1000    -0.0060 cp         1 K2C       0.006000
     16 C17         -0.5450    -1.0610    -0.0090 ca         1 K2C      -0.045200
     17 N13         -1.4240    -2.1510    -0.0070 na         1 K2C      -0.226600
     18 C14         -2.7620    -1.7350    -0.0030 ca         1 K2C      -0.007200
     19 C15         -2.7490    -0.3360    -0.0020 cp         1 K2C      -0.087000
     20 C4          -3.9790     0.3590     0.0020 ca         1 K2C      -0.030000
     21 C3          -5.1800    -0.3850     0.0060 ca         1 K2C      -0.154000
     22 C2          -5.1600    -1.8010     0.0040 ca         1 K2C      -0.070000
     23 C1          -3.9340    -2.4950     0.0000 ca         1 K2C      -0.155000
     24 H71          1.8290     3.0240    -0.9070 h1         1 K2C       0.059200
     25 HN12         1.6840    -2.9730    -0.0180 hn         1 K2C       0.351000
     26 H8           3.9590     1.9190    -0.0210 ha         1 K2C       0.114000
     27 H9           6.2460     0.9020    -0.0290 ha         1 K2C       0.115000
     28 H10          6.5330    -1.5760    -0.0320 ha         1 K2C       0.113000
     29 H11          4.5200    -3.0850    -0.0270 ha         1 K2C       0.117000
     30 HN13        -1.1330    -3.1220    -0.0090 hn         1 K2C       0.348000
     31 H4          -4.0220     1.4410     0.0030 ha         1 K2C       0.149000
     32 H3          -6.1340     0.1370     0.0090 ha         1 K2C       0.116000
     33 H2          -6.0960    -2.3560     0.0070 ha         1 K2C       0.111000
     34 H1          -3.9030    -3.5820    -0.0010 ha         1 K2C       0.113000
     35 HN6         -0.1670     4.5830    -0.0070 hn         1 K2C       0.332500
     36 H72          1.8340     3.0230     0.8790 h1         1 K2C       0.059200
     37 O24         -2.3140     3.1350    -0.0010 o          1 K2C      -0.557000
@<TRIPOS>BOND
     1     1     2 1   
     2     1     3 1   
     3     1    24 1   
     4     1    36 1   
     5     2    13 1   
     6     2    35 1   
     7     3     4 ar  
     8     3    14 ar  
     9     4     5 ar  
    10     4     8 1   
    11     5     6 1   
    12     5    16 ar  
    13     6     7 1   
    14     6    25 1   
    15     7     8 ar  
    16     7    12 ar  
    17     8     9 ar  
    18     9    10 ar  
    19     9    26 1   
    20    10    11 ar  
    21    10    27 1   
    22    11    12 ar  
    23    11    28 1   
    24    12    29 1   
    25    13    14 1   
    26    13    37 2   
    27    14    15 ar  
    28    15    16 ar  
    29    15    19 1   
    30    16    17 1   
    31    17    18 1   
    32    17    30 1   
    33    18    19 ar  
    34    18    23 ar  
    35    19    20 ar  
    36    20    21 ar  
    37    20    31 1   
    38    21    22 ar  
    39    21    32 1   
    40    22    23 ar  
    41    22    33 1   
    42    23    34 1   
@<TRIPOS>SUBSTRUCTURE
     1 K2C         1 TEMP              0 ****  ****    0 ROOT
