@<TRIPOS>MOLECULE
K2C
   37    42     1     0     0
SMALL
bcc


@<TRIPOS>ATOM
      1 C7           1.1720     2.8690    -0.0120 c5         1 K2C       0.148300
      2 N6          -0.0880     3.5650    -0.0000 ns         1 K2C      -0.588900
      3 C22          0.7310     1.4410    -0.0120 ca         1 K2C      -0.056300
      4 C21          1.5060     0.2790    -0.0150 cp         1 K2C      -0.064000
      5 C18          0.8590    -0.9700    -0.0140 ca         1 K2C      -0.003200
      6 N12          1.7980    -1.9610    -0.0180 na         1 K2C      -0.175300
      7 C19          3.0500    -1.4000    -0.0220 ca         1 K2C      -0.009200
      8 C20          2.9160     0.0040    -0.0210 cp         1 K2C      -0.080000
      9 C8           4.0610     0.8020    -0.0230 ca         1 K2C      -0.072000
     10 C9           5.3010     0.1900    -0.0260 ca         1 K2C      -0.159000
     11 C10          5.4130    -1.2060    -0.0280 ca         1 K2C      -0.097000
     12 C11          4.2950    -2.0210    -0.0260 ca         1 K2C      -0.157000
     13 C5          -1.1730     2.7570    -0.0010 c          1 K2C       0.730100
     14 C23         -0.6470     1.3760    -0.0070 ca         1 K2C      -0.135600
     15 C16         -1.3150     0.1340    -0.0050 cp         1 K2C       0.006000
     16 C17         -0.5370    -1.0400    -0.0070 ca         1 K2C      -0.045200
     17 N13         -1.3560    -2.1350    -0.0040 na         1 K2C      -0.176300
     18 C14         -2.6580    -1.7180    -0.0010 ca         1 K2C      -0.007200
     19 C15         -2.6880    -0.3050    -0.0020 cp         1 K2C      -0.087000
     20 C4          -3.9270     0.3430     0.0010 ca         1 K2C      -0.048000
     21 C3          -5.0830    -0.4150     0.0030 ca         1 K2C      -0.172000
     22 C2          -5.0290    -1.8160     0.0030 ca         1 K2C      -0.088000
     23 C1          -3.8210    -2.4860     0.0010 ca         1 K2C      -0.173000
     24 H71          1.7630     3.1170    -0.8990 h1         1 K2C       0.059200
     25 HN12         1.6120    -2.9500    -0.0210 hn         1 K2C       0.300700
     26 H8           3.9860     1.8820    -0.0230 ha         1 K2C       0.132000
     27 H9           6.1970     0.7970    -0.0280 ha         1 K2C       0.133000
     28 H10          6.3960    -1.6590    -0.0310 ha         1 K2C       0.131000
     29 H11          4.3870    -3.0990    -0.0280 ha         1 K2C       0.135000
     30 HN13        -1.0600    -3.0960    -0.0030 hn         1 K2C       0.297700
     31 H4          -3.9770     1.4220     0.0000 ha         1 K2C       0.167000
     32 H3          -6.0450     0.0800     0.0040 ha         1 K2C       0.134000
     33 H2          -5.9490    -2.3850     0.0030 ha         1 K2C       0.129000
     34 H1          -3.7780    -3.5670     0.0010 ha         1 K2C       0.131000
     35 HN6         -0.1590     4.5690    -0.0090 hn         1 K2C       0.332500
     36 H72          1.7780     3.1140     0.8660 h1         1 K2C       0.059200
     37 O24         -2.3380     3.1290     0.0030 o          1 K2C      -0.632500
@<TRIPOS>BOND
     1     1     2 1   
     2     1     3 1   
     3     1    24 1   
     4     1    36 1   
     5     2    13 1   
     6     2    35 1   
     7     3     4 ar  
     8     3    14 ar  
     9     4     5 ar  
    10     4     8 1   
    11     5     6 1   
    12     5    16 ar  
    13     6     7 1   
    14     6    25 1   
    15     7     8 ar  
    16     7    12 ar  
    17     8     9 ar  
    18     9    10 ar  
    19     9    26 1   
    20    10    11 ar  
    21    10    27 1   
    22    11    12 ar  
    23    11    28 1   
    24    12    29 1   
    25    13    14 1   
    26    13    37 2   
    27    14    15 ar  
    28    15    16 ar  
    29    15    19 1   
    30    16    17 1   
    31    17    18 1   
    32    17    30 1   
    33    18    19 ar  
    34    18    23 ar  
    35    19    20 ar  
    36    20    21 ar  
    37    20    31 1   
    38    21    22 ar  
    39    21    32 1   
    40    22    23 ar  
    41    22    33 1   
    42    23    34 1   
@<TRIPOS>SUBSTRUCTURE
     1 K2C         1 TEMP              0 ****  ****    0 ROOT
