@<TRIPOS>MOLECULE
K2D
   83    86     1     0     0
SMALL
abcg2


@<TRIPOS>ATOM
      1 C1          14.4550    36.5090    18.9980 c3         1 K2D       0.146900
      2 O1          14.2930    35.1570    18.5580 os         1 K2D      -0.342100
      3 C2          15.1660    34.6620    17.6540 ca         1 K2D       0.194100
      4 C3          16.2300    35.3870    17.1100 ca         1 K2D      -0.193000
      5 C4          17.0720    34.7840    16.1860 ca         1 K2D       0.024000
      6 C5          16.8570    33.4650    15.7980 ca         1 K2D      -0.361500
      7 C6          15.7920    32.7390    16.3380 ca         1 K2D       0.024000
      8 C7          14.9530    33.3350    17.2580 ca         1 K2D      -0.193000
      9 S8          17.9820    32.6850    14.6870 sy         1 K2D       1.198600
     10 O9          18.5710    33.7080    13.8550 o          1 K2D      -0.546000
     11 O10         17.2990    31.5770    14.0600 o          1 K2D      -0.546000
     12 N11         19.2000    32.0480    15.5950 n3         1 K2D      -0.746500
     13 C12         20.0950    33.0230    16.2510 c3         1 K2D       0.204800
     14 C13         21.5550    32.5680    16.3140 c3         1 K2D      -0.058700
     15 C14         22.1240    32.3240    14.9110 c3         1 K2D      -0.075400
     16 C15         22.3730    33.5670    17.1530 c3         1 K2D      -0.075400
     17 C16         18.8990    30.8320    16.3640 c3         1 K2D       0.212800
     18 C17         19.7730    29.6450    15.9570 c3         1 K2D       0.152300
     19 C18         22.5400    34.9620    16.5490 c3         1 K2D      -0.087600
     20 O18         19.5200    28.6340    16.9340 oh         1 K2D      -0.671000
     21 C19         19.5330    29.1580    14.5190 c3         1 K2D       0.100700
     22 C20         23.5050    31.6750    14.9090 c3         1 K2D      -0.087600
     23 N20         20.6450    28.3260    14.0860 ns         1 K2D      -0.503900
     24 C21         21.4750    28.6740    13.0850 c          1 K2D       0.636100
     25 O22         21.4460    29.7230    12.4630 o          1 K2D      -0.537000
     26 O23         22.3750    27.6840    12.8600 os         1 K2D      -0.461100
     27 C24         23.2810    27.8540    11.7520 c5         1 K2D       0.160300
     28 C25         24.5260    27.0430    12.0590 c5         1 K2D       0.152600
     29 O26         24.2190    25.7100    11.6460 os         1 K2D      -0.467000
     30 C27         23.4230    25.7880    10.4600 c5         1 K2D       0.368300
     31 O28         22.4070    24.8250    10.4840 os         1 K2D      -0.447000
     32 C29         21.1890    25.4480    10.9440 c5         1 K2D       0.151600
     33 C30         21.2590    26.8670    10.3930 c5         1 K2D      -0.095400
     34 C31         22.7580    27.1890    10.4630 c5         1 K2D      -0.141700
     35 C32         18.2050    28.4130    14.3350 c3         1 K2D      -0.038100
     36 C33         17.9790    26.6200    12.5750 ca         1 K2D      -0.101000
     37 C34         17.7780    26.2080    11.2610 ca         1 K2D      -0.116000
     38 C35         17.5850    27.1490    10.2570 ca         1 K2D      -0.115000
     39 C36         17.5910    28.5040    10.5780 ca         1 K2D      -0.116000
     40 C37         17.7850    28.9110    11.8930 ca         1 K2D      -0.101000
     41 C38         17.9810    27.9740    12.9100 ca         1 K2D      -0.084300
     42 H1          13.6520    36.6860    19.7080 h1         1 K2D       0.048033
     43 H1A         15.4210    36.6430    19.4910 h1         1 K2D       0.048033
     44 H1B         14.3690    37.2030    18.1600 h1         1 K2D       0.048033
     45 H3          16.4090    36.4130    17.3940 ha         1 K2D       0.129000
     46 H4          17.8890    35.3490    15.7600 ha         1 K2D       0.134000
     47 H6          15.6170    31.7180    16.0280 ha         1 K2D       0.134000
     48 H7          14.1200    32.7890    17.6820 ha         1 K2D       0.129000
     49 H12         20.0360    33.9490    15.6860 h1         1 K2D       0.052700
     50 H12A        19.7240    33.2190    17.2630 h1         1 K2D       0.052700
     51 H13         21.5910    31.6210    16.8610 hc         1 K2D       0.043700
     52 H14         21.4340    31.6830    14.3610 hc         1 K2D       0.047950
     53 H14A        22.1550    33.2710    14.3640 hc         1 K2D       0.047950
     54 H15         21.8970    33.6550    18.1350 hc         1 K2D       0.047950
     55 H15A        23.3600    33.1380    17.3350 hc         1 K2D       0.047950
     56 H16         19.0730    31.0360    17.4220 h1         1 K2D       0.063200
     57 H16A        17.8500    30.5640    16.2540 h1         1 K2D       0.063200
     58 H17         20.8210    29.9450    16.0130 h1         1 K2D       0.054700
     59 H18         23.1120    35.6000    17.2260 hc         1 K2D       0.032033
     60 H18A        23.0740    34.9290    15.5980 hc         1 K2D       0.032033
     61 H18B        21.5790    35.4500    16.3730 hc         1 K2D       0.032033
     62 HO18        20.2230    27.9730    16.8890 ho         1 K2D       0.449000
     63 H19         19.5480    30.0350    13.8760 h1         1 K2D       0.102700
     64 H20         23.8330    31.4670    13.8890 hc         1 K2D       0.032033
     65 H20A        24.2580    32.3120    15.3770 hc         1 K2D       0.032033
     66 H20B        23.4860    30.7260    15.4520 hc         1 K2D       0.032033
     67 HN20        20.7290    27.3890    14.4510 hn         1 K2D       0.322500
     68 H24         23.4820    28.9130    11.6240 h1         1 K2D       0.087700
     69 H25         25.3740    27.4380    11.4890 h1         1 K2D       0.062200
     70 H25A        24.7760    27.0310    13.1180 h1         1 K2D       0.062200
     71 H27         24.0560    25.5800     9.5940 h2         1 K2D       0.082700
     72 H29         20.3580    24.8630    10.5560 h1         1 K2D       0.056700
     73 H29A        21.1530    25.4420    12.0370 h1         1 K2D       0.056700
     74 H30         20.9330    26.8770     9.3520 hc         1 K2D       0.067200
     75 H30A        20.6320    27.5630    10.9430 hc         1 K2D       0.067200
     76 H31         23.0860    27.7800     9.6100 hc         1 K2D       0.077700
     77 H32         18.1900    27.5440    14.9930 hc         1 K2D       0.064700
     78 H32A        17.3980    29.0760    14.6490 hc         1 K2D       0.064700
     79 H34         17.7800    25.1520    11.0210 ha         1 K2D       0.112000
     80 H35         17.4350    26.8320     9.2320 ha         1 K2D       0.110000
     81 H36         17.4420    29.2450     9.8020 ha         1 K2D       0.112000
     82 H37         17.7830    29.9660    12.1380 ha         1 K2D       0.122000
     83 H33         18.1390    25.8820    13.3520 ha         1 K2D       0.122000
@<TRIPOS>BOND
     1     1     2 1   
     2     1    42 1   
     3     1    43 1   
     4     1    44 1   
     5     2     3 1   
     6     3     4 ar  
     7     3     8 ar  
     8     4     5 ar  
     9     4    45 1   
    10     5     6 ar  
    11     5    46 1   
    12     6     7 ar  
    13     6     9 1   
    14     7     8 ar  
    15     7    47 1   
    16     8    48 1   
    17     9    10 2   
    18     9    11 2   
    19     9    12 1   
    20    12    13 1   
    21    12    17 1   
    22    13    14 1   
    23    13    49 1   
    24    13    50 1   
    25    14    15 1   
    26    14    16 1   
    27    14    51 1   
    28    15    22 1   
    29    15    52 1   
    30    15    53 1   
    31    16    19 1   
    32    16    54 1   
    33    16    55 1   
    34    17    18 1   
    35    17    56 1   
    36    17    57 1   
    37    18    20 1   
    38    18    21 1   
    39    18    58 1   
    40    19    59 1   
    41    19    60 1   
    42    19    61 1   
    43    20    62 1   
    44    21    23 1   
    45    21    35 1   
    46    21    63 1   
    47    22    64 1   
    48    22    65 1   
    49    22    66 1   
    50    23    24 1   
    51    23    67 1   
    52    24    25 2   
    53    24    26 1   
    54    26    27 1   
    55    27    28 1   
    56    27    34 1   
    57    27    68 1   
    58    28    29 1   
    59    28    69 1   
    60    28    70 1   
    61    29    30 1   
    62    30    31 1   
    63    30    34 1   
    64    30    71 1   
    65    31    32 1   
    66    32    33 1   
    67    32    72 1   
    68    32    73 1   
    69    33    34 1   
    70    33    74 1   
    71    33    75 1   
    72    34    76 1   
    73    35    41 1   
    74    35    77 1   
    75    35    78 1   
    76    36    37 ar  
    77    36    41 ar  
    78    36    83 1   
    79    37    38 ar  
    80    37    79 1   
    81    38    39 ar  
    82    38    80 1   
    83    39    40 ar  
    84    39    81 1   
    85    40    41 ar  
    86    40    82 1   
@<TRIPOS>SUBSTRUCTURE
     1 K2D         1 TEMP              0 ****  ****    0 ROOT
