@<TRIPOS>MOLECULE
K2D
   83    86     1     0     0
SMALL
No Charge or Current Charge


@<TRIPOS>ATOM
      1 C1          14.7370    36.2160    19.8180 c3         1 K2D       0.146900
      2 O1          14.5670    34.9140    19.2290 os         1 K2D      -0.342100
      3 C2          15.2950    34.5030    18.1310 ca         1 K2D       0.194100
      4 C3          16.2530    35.3250    17.5010 ca         1 K2D      -0.193000
      5 C4          16.9630    34.8520    16.3850 ca         1 K2D       0.024000
      6 C5          16.7250    33.5530    15.8960 ca         1 K2D      -0.361500
      7 C6          15.7610    32.7350    16.5180 ca         1 K2D       0.024000
      8 C7          15.0550    33.2140    17.6330 ca         1 K2D      -0.193000
      9 S8          17.6410    32.9470    14.4710 sy         1 K2D       1.198600
     10 O9          18.0950    34.0810    13.6590 o          1 K2D      -0.546000
     11 O10         16.9180    31.8330    13.8500 o          1 K2D      -0.546000
     12 N11         19.0400    32.2710    15.1830 n3         1 K2D      -0.746500
     13 C12         19.9270    33.2880    15.8180 c3         1 K2D       0.204800
     14 C13         21.3810    32.8430    16.1430 c3         1 K2D      -0.058700
     15 C14         22.1490    32.4110    14.8580 c3         1 K2D      -0.075400
     16 C15         22.1320    33.9200    16.9850 c3         1 K2D      -0.075400
     17 C16         18.7660    31.0800    16.0450 c3         1 K2D       0.212800
     18 C17         19.6730    29.8390    15.7740 c3         1 K2D       0.152300
     19 C18         22.4050    35.2650    16.2750 c3         1 K2D      -0.087600
     20 O18         19.4360    28.8320    16.7800 oh         1 K2D      -0.671000
     21 C19         19.5030    29.2400    14.3420 c3         1 K2D       0.100700
     22 C20         23.5270    31.7650    15.1130 c3         1 K2D      -0.087600
     23 N20         20.6050    28.3210    14.0180 ns         1 K2D      -0.503900
     24 C21         21.5900    28.5730    13.1070 c          1 K2D       0.636100
     25 O22         21.7250    29.6150    12.4870 o          1 K2D      -0.537000
     26 O23         22.3500    27.4440    12.9810 os         1 K2D      -0.461100
     27 C24         23.4000    27.5140    11.9710 c5         1 K2D       0.160300
     28 C25         24.4900    26.4860    12.3770 c5         1 K2D       0.152600
     29 O26         23.9970    25.2360    11.8650 os         1 K2D      -0.467000
     30 C27         23.4980    25.4920    10.5420 c5         1 K2D       0.368300
     31 O28         22.3560    24.6410    10.3310 os         1 K2D      -0.447000
     32 C29         21.2240    25.2980    10.9290 c5         1 K2D       0.151600
     33 C30         21.3900    26.7460    10.4150 c5         1 K2D      -0.095400
     34 C31         22.9430    26.9570    10.5600 c5         1 K2D      -0.141700
     35 C32         18.1390    28.5460    14.0750 c3         1 K2D      -0.038100
     36 C33         17.8990    26.6280    12.4110 ca         1 K2D      -0.101000
     37 C34         17.7830    26.1420    11.0970 ca         1 K2D      -0.116000
     38 C35         17.7870    27.0340    10.0120 ca         1 K2D      -0.115000
     39 C36         17.9000    28.4150    10.2430 ca         1 K2D      -0.116000
     40 C37         18.0100    28.9030    11.5560 ca         1 K2D      -0.101000
     41 C38         18.0130    28.0130    12.6490 ca         1 K2D      -0.084300
     42 H1          14.0650    36.3350    20.6770 h1         1 K2D       0.048033
     43 H1A         15.7670    36.3530    20.1710 h1         1 K2D       0.048033
     44 H1B         14.5040    37.0060    19.0930 h1         1 K2D       0.048033
     45 H3          16.4590    36.3280    17.8600 ha         1 K2D       0.129000
     46 H4          17.6990    35.4990    15.9080 ha         1 K2D       0.134000
     47 H6          15.5540    31.7320    16.1450 ha         1 K2D       0.134000
     48 H7          14.3140    32.5820    18.1140 ha         1 K2D       0.129000
     49 H12         20.0170    34.1630    15.1620 h1         1 K2D       0.052700
     50 H12A        19.4620    33.6440    16.7480 h1         1 K2D       0.052700
     51 H13         21.3150    31.9720    16.8030 hc         1 K2D       0.043700
     52 H14         21.5410    31.6890    14.3010 hc         1 K2D       0.047950
     53 H14A        22.2710    33.2700    14.1880 hc         1 K2D       0.047950
     54 H15         21.5500    34.1220    17.8930 hc         1 K2D       0.047950
     55 H15A        23.0860    33.5080    17.3340 hc         1 K2D       0.047950
     56 H16         18.8690    31.3590    17.1020 h1         1 K2D       0.063200
     57 H16A        17.7290    30.7400    15.9390 h1         1 K2D       0.063200
     58 H17         20.7140    30.1680    15.8510 h1         1 K2D       0.054700
     59 H18         22.9160    35.9530    16.9590 hc         1 K2D       0.032033
     60 H18A        23.0480    35.1280    15.3980 hc         1 K2D       0.032033
     61 H18B        21.4730    35.7440    15.9540 hc         1 K2D       0.032033
     62 HO18        20.1880    28.2010    16.7380 ho         1 K2D       0.449000
     63 H19         19.5660    30.0900    13.6480 h1         1 K2D       0.102700
     64 H20         23.9530    31.3990    14.1720 hc         1 K2D       0.032033
     65 H20A        24.2300    32.4880    15.5430 hc         1 K2D       0.032033
     66 H20B        23.4360    30.9140    15.7990 hc         1 K2D       0.032033
     67 HN20        20.5980    27.3870    14.4040 hn         1 K2D       0.322500
     68 H24         23.8290    28.5250    11.9220 h1         1 K2D       0.087700
     69 H25         25.4540    26.7150    11.9030 h1         1 K2D       0.062200
     70 H25A        24.6360    26.4220    13.4640 h1         1 K2D       0.062200
     71 H27         24.2780    25.3360     9.7830 h2         1 K2D       0.082700
     72 H29         20.2910    24.8270    10.5940 h1         1 K2D       0.056700
     73 H29A        21.2900    25.2290    12.0230 h1         1 K2D       0.056700
     74 H30         21.0930    26.8000     9.3620 hc         1 K2D       0.067200
     75 H30A        20.7610    27.4690    10.9410 hc         1 K2D       0.067200
     76 H31         23.3570    27.5550     9.7410 hc         1 K2D       0.077700
     77 H32         18.0020    27.7300    14.7940 hc         1 K2D       0.064700
     78 H32A        17.3230    29.2500    14.2650 hc         1 K2D       0.064700
     79 H34         17.6920    25.0720    10.9200 ha         1 K2D       0.112000
     80 H35         17.7000    26.6570     8.9960 ha         1 K2D       0.110000
     81 H36         17.9020    29.1080     9.4040 ha         1 K2D       0.112000
     82 H37         18.0920    29.9750    11.7250 ha         1 K2D       0.122000
     83 H33         17.8990    25.9270    13.2420 ha         1 K2D       0.122000
@<TRIPOS>BOND
     1     1     2 1   
     2     1    42 1   
     3     1    43 1   
     4     1    44 1   
     5     2     3 1   
     6     3     4 ar  
     7     3     8 ar  
     8     4     5 ar  
     9     4    45 1   
    10     5     6 ar  
    11     5    46 1   
    12     6     7 ar  
    13     6     9 1   
    14     7     8 ar  
    15     7    47 1   
    16     8    48 1   
    17     9    10 2   
    18     9    11 2   
    19     9    12 1   
    20    12    13 1   
    21    12    17 1   
    22    13    14 1   
    23    13    49 1   
    24    13    50 1   
    25    14    15 1   
    26    14    16 1   
    27    14    51 1   
    28    15    22 1   
    29    15    52 1   
    30    15    53 1   
    31    16    19 1   
    32    16    54 1   
    33    16    55 1   
    34    17    18 1   
    35    17    56 1   
    36    17    57 1   
    37    18    20 1   
    38    18    21 1   
    39    18    58 1   
    40    19    59 1   
    41    19    60 1   
    42    19    61 1   
    43    20    62 1   
    44    21    23 1   
    45    21    35 1   
    46    21    63 1   
    47    22    64 1   
    48    22    65 1   
    49    22    66 1   
    50    23    24 1   
    51    23    67 1   
    52    24    25 2   
    53    24    26 1   
    54    26    27 1   
    55    27    28 1   
    56    27    34 1   
    57    27    68 1   
    58    28    29 1   
    59    28    69 1   
    60    28    70 1   
    61    29    30 1   
    62    30    31 1   
    63    30    34 1   
    64    30    71 1   
    65    31    32 1   
    66    32    33 1   
    67    32    72 1   
    68    32    73 1   
    69    33    34 1   
    70    33    74 1   
    71    33    75 1   
    72    34    76 1   
    73    35    41 1   
    74    35    77 1   
    75    35    78 1   
    76    36    37 ar  
    77    36    41 ar  
    78    36    83 1   
    79    37    38 ar  
    80    37    79 1   
    81    38    39 ar  
    82    38    80 1   
    83    39    40 ar  
    84    39    81 1   
    85    40    41 ar  
    86    40    82 1   
@<TRIPOS>SUBSTRUCTURE
     1 K2D         1 TEMP              0 ****  ****    0 ROOT
