@<TRIPOS>MOLECULE
K2E
   82    86     1     0     0
SMALL
No Charge or Current Charge


@<TRIPOS>ATOM
      1 C1           1.5340    -4.1700     0.2050 c5         1 K2E       0.369600
      2 O1           0.6030    -4.3340    -0.9220 os         1 K2E      -0.340100
      3 C2          -0.4360    -3.5350    -0.5680 ca         1 K2E       0.109100
      4 O2           0.8740    -3.3980     1.2730 os         1 K2E      -0.340100
      5 C3          -0.2820    -3.0030     0.6810 ca         1 K2E       0.031100
      6 C4          -1.2510    -2.1660     1.2490 ca         1 K2E      -0.011000
      7 C5          -2.4050    -1.8630     0.4810 ca         1 K2E      -0.304500
      8 C6          -2.5640    -2.4300    -0.8110 ca         1 K2E      -0.007000
      9 C7          -1.5700    -3.2760    -1.3440 ca         1 K2E      -0.124000
     10 S8          -3.6700    -0.7700     1.1520 sy         1 K2E       1.178600
     11 O9          -4.9860    -1.3510     0.8720 o          1 K2E      -0.536000
     12 O10         -3.3220    -0.3770     2.5220 o          1 K2E      -0.536000
     13 N11         -3.5630     0.6550     0.2030 n3         1 K2E      -0.763500
     14 C12         -4.2580     0.6800    -1.1170 c3         1 K2E       0.235800
     15 C13         -5.4200     1.7220    -1.2580 c3         1 K2E      -0.065700
     16 C14         -6.6430     1.3920    -0.3510 c3         1 K2E      -0.071400
     17 C15         -4.9860     3.2070    -1.0840 c3         1 K2E      -0.071400
     18 C16         -2.3390     1.5030     0.3650 c3         1 K2E       0.173800
     19 C17         -1.0160     1.0420    -0.3400 c3         1 K2E       0.117300
     20 C18         -3.9830     3.7150    -2.1430 c3         1 K2E      -0.089600
     21 O18         -1.0920     1.1410    -1.7810 oh         1 K2E      -0.654000
     22 C19          0.2450     1.7930     0.1820 c3         1 K2E       0.098700
     23 C20         -7.4660     0.1680    -0.8110 c3         1 K2E      -0.089600
     24 N20          1.4540     1.1280    -0.3170 ns         1 K2E      -0.496900
     25 C21          2.5260     0.7670     0.4460 c          1 K2E       0.644100
     26 O22          2.6380     0.9710     1.6450 o          1 K2E      -0.534000
     27 O23          3.3950     0.0700    -0.3440 os         1 K2E      -0.455100
     28 C24          4.5540    -0.4760     0.3460 c5         1 K2E       0.169300
     29 C25          4.1310    -1.6470     1.3070 c5         1 K2E       0.129600
     30 O26          4.7200    -2.8470     0.7530 os         1 K2E      -0.475000
     31 C27          5.9160    -2.4460     0.0650 c5         1 K2E       0.379300
     32 O28          6.2060    -3.4280    -0.9500 os         1 K2E      -0.438000
     33 C29          5.6050    -3.0200    -2.2070 c5         1 K2E       0.149600
     34 C30          4.6700    -1.8320    -1.8670 c5         1 K2E      -0.095400
     35 C31          5.4830    -1.1820    -0.6990 c5         1 K2E      -0.134700
     36 C32          0.2770     3.3160    -0.1280 c3         1 K2E      -0.048100
     37 C33          2.6230     4.2860    -0.3410 ca         1 K2E      -0.098500
     38 C34          3.7510     4.9180     0.2100 ca         1 K2E      -0.106500
     39 C35          3.7610     5.2830     1.5670 ca         1 K2E      -0.104000
     40 C36          2.6420     5.0140     2.3730 ca         1 K2E      -0.106500
     41 C37          1.5140     4.3810     1.8230 ca         1 K2E      -0.098500
     42 C38          1.4980     4.0130     0.4630 ca         1 K2E      -0.085300
     43 H1           1.8350    -5.1520     0.5870 h2         1 K2E       0.078200
     44 H1A          2.4150    -3.6180    -0.1420 h2         1 K2E       0.078200
     45 H4          -1.1020    -1.7600     2.2490 ha         1 K2E       0.163000
     46 H6          -3.4540    -2.2200    -1.4010 ha         1 K2E       0.129000
     47 H7          -1.6800    -3.7170    -2.3320 ha         1 K2E       0.139000
     48 H12         -3.5390     0.8720    -1.9200 h1         1 K2E       0.053700
     49 H12A        -4.6740    -0.3060    -1.3550 h1         1 K2E       0.053700
     50 H13         -5.7770     1.6370    -2.2920 hc         1 K2E       0.048700
     51 H14         -6.3080     1.2430     0.6820 hc         1 K2E       0.042700
     52 H14A        -7.3240     2.2520    -0.3300 hc         1 K2E       0.042700
     53 H15         -5.8750     3.8460    -1.1510 hc         1 K2E       0.042700
     54 H15A        -4.5830     3.3650    -0.0770 hc         1 K2E       0.042700
     55 H16         -2.5510     2.5230     0.0300 h1         1 K2E       0.076700
     56 H16A        -2.1190     1.6020     1.4370 h1         1 K2E       0.076700
     57 H17         -0.8530    -0.0050    -0.0740 h1         1 K2E       0.090700
     58 H18         -3.7530     4.7730    -1.9700 hc         1 K2E       0.032700
     59 H18A        -3.0430     3.1560    -2.1140 hc         1 K2E       0.032700
     60 H18B        -4.4060     3.6200    -3.1510 hc         1 K2E       0.032700
     61 HO18        -1.1730     2.0900    -2.0110 ho         1 K2E       0.441000
     62 H19          0.2400     1.6900     1.2760 h1         1 K2E       0.096700
     63 H20         -6.8570    -0.7400    -0.8560 hc         1 K2E       0.032700
     64 H20A        -8.2940    -0.0140    -0.1160 hc         1 K2E       0.032700
     65 H20B        -7.8920     0.3430    -1.8060 hc         1 K2E       0.032700
     66 HN20         1.4900     0.8520    -1.2890 hn         1 K2E       0.333500
     67 H24          5.0830     0.3220     0.8880 h1         1 K2E       0.073700
     68 H25          4.5320    -1.4860     2.3160 h1         1 K2E       0.070700
     69 H25A         3.0440    -1.7730     1.3830 h1         1 K2E       0.070700
     70 H27          6.7530    -2.2850     0.7590 h2         1 K2E       0.080700
     71 H29          6.4080    -2.7080    -2.8880 h1         1 K2E       0.051200
     72 H29A         5.0710    -3.8640    -2.6620 h1         1 K2E       0.051200
     73 H30          4.5280    -1.1540    -2.7150 hc         1 K2E       0.065200
     74 H30A         3.6800    -2.1960    -1.5680 hc         1 K2E       0.065200
     75 H31          6.3280    -0.5700    -1.0310 hc         1 K2E       0.080700
     76 H32          0.2520     3.4710    -1.2130 hc         1 K2E       0.050200
     77 H32A        -0.6310     3.7890     0.2660 hc         1 K2E       0.050200
     78 H34          4.6180     5.1240    -0.4150 ha         1 K2E       0.113000
     79 H35          4.6350     5.7710     1.9930 ha         1 K2E       0.113000
     80 H36          2.6490     5.2940     3.4240 ha         1 K2E       0.113000
     81 H37          0.6530     4.1730     2.4550 ha         1 K2E       0.109000
     82 H33          2.6260     4.0030    -1.3910 ha         1 K2E       0.109000
@<TRIPOS>BOND
     1     1     2 1   
     2     1     4 1   
     3     1    43 1   
     4     1    44 1   
     5     2     3 1   
     6     3     5 ar  
     7     3     9 ar  
     8     4     5 1   
     9     5     6 ar  
    10     6     7 ar  
    11     6    45 1   
    12     7     8 ar  
    13     7    10 1   
    14     8     9 ar  
    15     8    46 1   
    16     9    47 1   
    17    10    11 2   
    18    10    12 2   
    19    10    13 1   
    20    13    14 1   
    21    13    18 1   
    22    14    15 1   
    23    14    48 1   
    24    14    49 1   
    25    15    16 1   
    26    15    17 1   
    27    15    50 1   
    28    16    23 1   
    29    16    51 1   
    30    16    52 1   
    31    17    20 1   
    32    17    53 1   
    33    17    54 1   
    34    18    19 1   
    35    18    55 1   
    36    18    56 1   
    37    19    21 1   
    38    19    22 1   
    39    19    57 1   
    40    20    58 1   
    41    20    59 1   
    42    20    60 1   
    43    21    61 1   
    44    22    24 1   
    45    22    36 1   
    46    22    62 1   
    47    23    63 1   
    48    23    64 1   
    49    23    65 1   
    50    24    25 1   
    51    24    66 1   
    52    25    26 2   
    53    25    27 1   
    54    27    28 1   
    55    28    29 1   
    56    28    35 1   
    57    28    67 1   
    58    29    30 1   
    59    29    68 1   
    60    29    69 1   
    61    30    31 1   
    62    31    32 1   
    63    31    35 1   
    64    31    70 1   
    65    32    33 1   
    66    33    34 1   
    67    33    71 1   
    68    33    72 1   
    69    34    35 1   
    70    34    73 1   
    71    34    74 1   
    72    35    75 1   
    73    36    42 1   
    74    36    76 1   
    75    36    77 1   
    76    37    38 ar  
    77    37    42 ar  
    78    37    82 1   
    79    38    39 ar  
    80    38    78 1   
    81    39    40 ar  
    82    39    79 1   
    83    40    41 ar  
    84    40    80 1   
    85    41    42 ar  
    86    41    81 1   
@<TRIPOS>SUBSTRUCTURE
     1 K2E         1 TEMP              0 ****  ****    0 ROOT
