@<TRIPOS>MOLECULE
K2E
   82    86     1     0     0
SMALL
abcg2


@<TRIPOS>ATOM
      1 C1           1.4920    -4.2210     0.1390 c5         1 K2E       0.369600
      2 O1           0.5810    -4.3670    -0.9450 os         1 K2E      -0.340100
      3 C2          -0.4800    -3.5870    -0.6710 ca         1 K2E       0.109100
      4 O2           0.8240    -3.4620     1.1400 os         1 K2E      -0.340100
      5 C3          -0.3360    -3.0340     0.5940 ca         1 K2E       0.031100
      6 C4          -1.2780    -2.2010     1.1390 ca         1 K2E      -0.011000
      7 C5          -2.3970    -1.9330     0.3370 ca         1 K2E      -0.304500
      8 C6          -2.5560    -2.4910    -0.9220 ca         1 K2E      -0.007000
      9 C7          -1.5830    -3.3390    -1.4520 ca         1 K2E      -0.124000
     10 S8          -3.6220    -0.7830     0.9090 sy         1 K2E       1.178600
     11 O9          -4.9220    -1.3620     0.6170 o          1 K2E      -0.536000
     12 O10         -3.2800    -0.4510     2.2850 o          1 K2E      -0.536000
     13 N11         -3.4780     0.5950     0.0180 n3         1 K2E      -0.763500
     14 C12         -4.2790     0.7940    -1.1990 c3         1 K2E       0.235800
     15 C13         -5.3970     1.8400    -1.0800 c3         1 K2E      -0.065700
     16 C14         -6.5180     1.4190    -0.1260 c3         1 K2E      -0.071400
     17 C15         -4.9050     3.2520    -0.7460 c3         1 K2E      -0.071400
     18 C16         -2.2900     1.4170     0.2410 c3         1 K2E       0.173800
     19 C17         -1.0130     0.9580    -0.4670 c3         1 K2E       0.117300
     20 C18         -3.9940     3.8740    -1.7950 c3         1 K2E      -0.089600
     21 O18         -1.1050     0.9830    -1.8730 oh         1 K2E      -0.654000
     22 C19          0.2140     1.7220     0.0540 c3         1 K2E       0.098700
     23 C20         -7.4210     0.3220    -0.6750 c3         1 K2E      -0.089600
     24 N20          1.4070     1.0550    -0.4050 ns         1 K2E      -0.496900
     25 C21          2.3860     0.6450     0.4180 c          1 K2E       0.644100
     26 O22          2.4140     0.7920     1.6220 o          1 K2E      -0.534000
     27 O23          3.3480     0.0180    -0.2740 os         1 K2E      -0.455100
     28 C24          4.4540    -0.4800     0.4690 c5         1 K2E       0.169300
     29 C25          4.1110    -1.6450     1.4230 c5         1 K2E       0.129600
     30 O26          4.7440    -2.7990     0.9060 os         1 K2E      -0.475000
     31 C27          5.9080    -2.3700     0.2280 c5         1 K2E       0.379300
     32 O28          6.2750    -3.3000    -0.7200 os         1 K2E      -0.438000
     33 C29          5.8220    -2.8930    -2.0150 c5         1 K2E       0.149600
     34 C30          4.9100    -1.6930    -1.7900 c5         1 K2E      -0.095400
     35 C31          5.4640    -1.1000    -0.4910 c5         1 K2E      -0.134700
     36 C32          0.2290     3.2090    -0.3340 c3         1 K2E      -0.048100
     37 C33          2.6060     4.0320    -0.4580 ca         1 K2E      -0.098500
     38 C34          3.7120     4.6560     0.1030 ca         1 K2E      -0.106500
     39 C35          3.6390     5.1880     1.3830 ca         1 K2E      -0.104000
     40 C36          2.4510     5.0900     2.0970 ca         1 K2E      -0.106500
     41 C37          1.3500     4.4610     1.5340 ca         1 K2E      -0.098500
     42 C38          1.4120     3.9240     0.2510 ca         1 K2E      -0.085300
     43 H1           1.7590    -5.2010     0.5340 h2         1 K2E       0.078200
     44 H1A          2.3880    -3.6900    -0.1990 h2         1 K2E       0.078200
     45 H4          -1.1550    -1.7700     2.1230 ha         1 K2E       0.163000
     46 H6          -3.4340    -2.2800    -1.5180 ha         1 K2E       0.129000
     47 H7          -1.7010    -3.7780    -2.4330 ha         1 K2E       0.139000
     48 H12         -3.6020     1.0550    -2.0110 h1         1 K2E       0.053700
     49 H12A        -4.7220    -0.1540    -1.4980 h1         1 K2E       0.053700
     50 H13         -5.8270     1.8860    -2.0900 hc         1 K2E       0.048700
     51 H14         -6.0970     1.1170     0.8380 hc         1 K2E       0.042700
     52 H14A        -7.1360     2.2970     0.0840 hc         1 K2E       0.042700
     53 H15         -5.7840     3.8940    -0.6450 hc         1 K2E       0.042700
     54 H15A        -4.4300     3.2600     0.2400 hc         1 K2E       0.042700
     55 H16         -2.5430     2.4320    -0.0600 h1         1 K2E       0.076700
     56 H16A        -2.0970     1.4790     1.3130 h1         1 K2E       0.076700
     57 H17         -0.8350    -0.0880    -0.2210 h1         1 K2E       0.090700
     58 H18         -3.6750     4.8730    -1.4970 hc         1 K2E       0.032700
     59 H18A        -3.0890     3.2920    -1.9780 hc         1 K2E       0.032700
     60 H18B        -4.5090     3.9600    -2.7530 hc         1 K2E       0.032700
     61 HO18        -1.2520     1.8860    -2.1750 ho         1 K2E       0.441000
     62 H19          0.2030     1.6490     1.1440 h1         1 K2E       0.096700
     63 H20         -6.8770    -0.5980    -0.8790 hc         1 K2E       0.032700
     64 H20A        -8.2140     0.0780     0.0330 hc         1 K2E       0.032700
     65 H20B        -7.8980     0.6420    -1.6040 hc         1 K2E       0.032700
     66 HN20         1.5040     0.8870    -1.3950 hn         1 K2E       0.333500
     67 H24          4.9080     0.3410     1.0260 h1         1 K2E       0.073700
     68 H25          4.4820    -1.4120     2.4270 h1         1 K2E       0.070700
     69 H25A         3.0420    -1.8430     1.5030 h1         1 K2E       0.070700
     70 H27          6.7330    -2.2320     0.9400 h2         1 K2E       0.080700
     71 H29          6.6900    -2.6280    -2.6240 h1         1 K2E       0.051200
     72 H29A         5.3090    -3.7250    -2.4990 h1         1 K2E       0.051200
     73 H30          4.9460    -0.9930    -2.6230 hc         1 K2E       0.065200
     74 H30A         3.8740    -2.0160    -1.6780 hc         1 K2E       0.065200
     75 H31          6.2990    -0.4290    -0.6950 hc         1 K2E       0.080700
     76 H32          0.2460     3.3090    -1.4230 hc         1 K2E       0.050200
     77 H32A        -0.6920     3.6820     0.0170 hc         1 K2E       0.050200
     78 H34          4.6310     4.7300    -0.4650 ha         1 K2E       0.113000
     79 H35          4.4980     5.6800     1.8190 ha         1 K2E       0.113000
     80 H36          2.3800     5.5070     3.0940 ha         1 K2E       0.113000
     81 H37          0.4270     4.3920     2.1000 ha         1 K2E       0.109000
     82 H33          2.6710     3.6310    -1.4620 ha         1 K2E       0.109000
@<TRIPOS>BOND
     1     1     2 1   
     2     1     4 1   
     3     1    43 1   
     4     1    44 1   
     5     2     3 1   
     6     3     5 ar  
     7     3     9 ar  
     8     4     5 1   
     9     5     6 ar  
    10     6     7 ar  
    11     6    45 1   
    12     7     8 ar  
    13     7    10 1   
    14     8     9 ar  
    15     8    46 1   
    16     9    47 1   
    17    10    11 2   
    18    10    12 2   
    19    10    13 1   
    20    13    14 1   
    21    13    18 1   
    22    14    15 1   
    23    14    48 1   
    24    14    49 1   
    25    15    16 1   
    26    15    17 1   
    27    15    50 1   
    28    16    23 1   
    29    16    51 1   
    30    16    52 1   
    31    17    20 1   
    32    17    53 1   
    33    17    54 1   
    34    18    19 1   
    35    18    55 1   
    36    18    56 1   
    37    19    21 1   
    38    19    22 1   
    39    19    57 1   
    40    20    58 1   
    41    20    59 1   
    42    20    60 1   
    43    21    61 1   
    44    22    24 1   
    45    22    36 1   
    46    22    62 1   
    47    23    63 1   
    48    23    64 1   
    49    23    65 1   
    50    24    25 1   
    51    24    66 1   
    52    25    26 2   
    53    25    27 1   
    54    27    28 1   
    55    28    29 1   
    56    28    35 1   
    57    28    67 1   
    58    29    30 1   
    59    29    68 1   
    60    29    69 1   
    61    30    31 1   
    62    31    32 1   
    63    31    35 1   
    64    31    70 1   
    65    32    33 1   
    66    33    34 1   
    67    33    71 1   
    68    33    72 1   
    69    34    35 1   
    70    34    73 1   
    71    34    74 1   
    72    35    75 1   
    73    36    42 1   
    74    36    76 1   
    75    36    77 1   
    76    37    38 ar  
    77    37    42 ar  
    78    37    82 1   
    79    38    39 ar  
    80    38    78 1   
    81    39    40 ar  
    82    39    79 1   
    83    40    41 ar  
    84    40    80 1   
    85    41    42 ar  
    86    41    81 1   
@<TRIPOS>SUBSTRUCTURE
     1 K2E         1 TEMP              0 ****  ****    0 ROOT
