@<TRIPOS>MOLECULE
K2G
   23    23     1     0     0
SMALL
No Charge or Current Charge


@<TRIPOS>ATOM
      1 N1           0.5450    -0.8780     0.0040 nb         1 K2G      -0.196000
      2 C4           0.1010     1.8320     0.0230 ca         1 K2G       0.110900
      3 C5          -1.0030     0.9600     0.0180 ca         1 K2G       0.044000
      4 C6          -0.7420    -0.4380     0.0080 ca         1 K2G       0.075500
      5 C7          -1.8330    -1.5060     0.0020 c          1 K2G       0.511600
      6 N            1.3690     1.3810     0.0190 nb         1 K2G      -0.157000
      7 C            3.7340    -0.0750    -1.2740 c3         1 K2G      -0.085600
      8 O           -3.0310    -1.2740     0.0050 o          1 K2G      -0.581100
      9 C2           3.7370    -0.0930     1.2870 c3         1 K2G      -0.085600
     10 C3           1.5350     0.0410     0.0090 ca         1 K2G       0.144300
     11 N2          -1.4360    -2.8040    -0.0080 nt         1 K2G      -0.587000
     12 Cl          -2.6210     1.6700     0.0250 cl         1 K2G      -0.123000
     13 H1          -0.0320     2.9120     0.0310 h4         1 K2G       0.041100
     14 H2           4.7290    -0.5360    -1.2990 hc         1 K2G       0.042700
     15 H3           3.1890    -0.3950    -2.1700 hc         1 K2G       0.042700
     16 H4           3.8620     1.0130    -1.3210 hc         1 K2G       0.042700
     17 H5           2.9340    -1.5910    -0.0040 hc         1 K2G       0.066700
     18 H6           3.8640     0.9950     1.3480 hc         1 K2G       0.042700
     19 H7           3.1940    -0.4260     2.1790 hc         1 K2G       0.042700
     20 H8           4.7320    -0.5540     1.3030 hc         1 K2G       0.042700
     21 H9          -0.4520    -3.0290    -0.0110 hn         1 K2G       0.331000
     22 H10         -2.1310    -3.5360    -0.0130 hn         1 K2G       0.331000
     23 C1           2.9700    -0.4940     0.0040 c3         1 K2G      -0.098000
@<TRIPOS>BOND
     1     1     4 ar  
     2     1    10 ar  
     3     2     3 ar  
     4     2     6 ar  
     5     2    13 1   
     6     3     4 ar  
     7     3    12 1   
     8     4     5 1   
     9     5     8 2   
    10     5    11 1   
    11     6    10 ar  
    12     7    14 1   
    13     7    15 1   
    14     7    16 1   
    15     7    23 1   
    16     9    18 1   
    17     9    19 1   
    18     9    20 1   
    19     9    23 1   
    20    10    23 1   
    21    11    21 1   
    22    11    22 1   
    23    17    23 1   
@<TRIPOS>SUBSTRUCTURE
     1 K2G         1 TEMP              0 ****  ****    0 ROOT
