@<TRIPOS>MOLECULE
K2G
   23    23     1     0     0
SMALL
bcc


@<TRIPOS>ATOM
      1 N1           0.5230    -0.8650     0.0040 nb         1 K2G      -0.722000
      2 C4           0.1350     1.7800     0.0200 ca         1 K2G       0.439200
      3 C5          -0.9810     0.9430     0.0150 ca         1 K2G      -0.178200
      4 C6          -0.7310    -0.4210     0.0080 ca         1 K2G       0.403800
      5 C7          -1.8080    -1.4840     0.0040 c          1 K2G       0.578600
      6 N            1.3650     1.3190     0.0170 nb         1 K2G      -0.683000
      7 C            3.6710    -0.0840    -1.2560 c3         1 K2G      -0.085600
      8 O           -2.9920    -1.1960     0.0040 o          1 K2G      -0.581100
      9 C2           3.6710    -0.1120     1.2690 c3         1 K2G      -0.085600
     10 C3           1.5250    -0.0050     0.0070 ca         1 K2G       0.670300
     11 N2          -1.3270    -2.7280     0.0010 nt         1 K2G      -0.654000
     12 CL          -2.5270     1.6810     0.0180 cl         1 K2G      -0.031400
     13 H1           0.0010     2.8560     0.0280 h4         1 K2G       0.041100
     14 H2           4.6810    -0.4940    -1.2630 hc         1 K2G       0.042700
     15 H3           3.1670    -0.4230    -2.1620 hc         1 K2G       0.042700
     16 H4           3.7490     1.0020    -1.2970 hc         1 K2G       0.042700
     17 H5           2.8560    -1.6280    -0.0110 hc         1 K2G       0.066700
     18 H6           3.7470     0.9740     1.3340 hc         1 K2G       0.042700
     19 H7           3.1670    -0.4720     2.1670 hc         1 K2G       0.042700
     20 H8           4.6810    -0.5210     1.2670 hc         1 K2G       0.042700
     21 H9          -0.3340    -2.8950    -0.0030 hn         1 K2G       0.331000
     22 H10         -1.9550    -3.5150    -0.0060 hn         1 K2G       0.331000
     23 C1           2.9300    -0.5380     0.0010 c3         1 K2G      -0.098000
@<TRIPOS>BOND
     1     1     4 ar  
     2     1    10 ar  
     3     2     3 ar  
     4     2     6 ar  
     5     2    13 1   
     6     3     4 ar  
     7     3    12 1   
     8     4     5 1   
     9     5     8 2   
    10     5    11 1   
    11     6    10 ar  
    12     7    14 1   
    13     7    15 1   
    14     7    16 1   
    15     7    23 1   
    16     9    18 1   
    17     9    19 1   
    18     9    20 1   
    19     9    23 1   
    20    10    23 1   
    21    11    21 1   
    22    11    22 1   
    23    17    23 1   
@<TRIPOS>SUBSTRUCTURE
     1 K2G         1 TEMP              0 ****  ****    0 ROOT
