@<TRIPOS>MOLECULE
K2H
   54    58     1     0     0
SMALL
abcg2


@<TRIPOS>ATOM
      1 C2           5.2960     2.4320    -0.9620 ca         1 K2H       0.177900
      2 C4           3.6990     1.0080    -0.4710 ca         1 K2H       0.130500
      3 C5           2.8400     2.0190    -0.0670 ca         1 K2H      -0.099600
      4 C6           3.3410     3.3310    -0.1480 ca         1 K2H       0.448900
      5 N9           2.9900    -0.1460    -0.3120 na         1 K2H      -0.299300
      6 C8           1.7580     0.2190     0.1630 cc         1 K2H       0.411700
      7 CAK          3.4620    -1.4870    -0.5880 c5         1 K2H       0.322300
      8 CAM          2.2650    -3.4660    -0.3300 c5         1 K2H       0.165300
      9 CAN          1.1540    -3.3970     0.7170 c3         1 K2H       0.142800
     10 CAP         -0.9910    -2.5810     1.3420 c3         1 K2H       0.245900
     11 CAQ         -2.0480    -1.6330     1.0100 c1         1 K2H      -0.078100
     12 CAR         -2.9160    -0.8440     0.7420 cg         1 K2H      -0.130200
     13 CAS         -3.9290     0.0880     0.4120 cc         1 K2H       0.467700
     14 CAU         -5.4600     1.0830    -0.8010 ca         1 K2H       0.133500
     15 CAW         -7.0320     2.4950    -1.3950 ca         1 K2H       0.188900
     16 CAY         -6.1660     2.7710     0.7190 ca         1 K2H       0.454900
     17 CAZ         -5.3260     1.6710     0.4510 ca         1 K2H      -0.103600
     18 CBC         -0.6560    -3.4020    -0.8880 c3         1 K2H       0.146100
     19 CBD          3.6190    -3.6710     0.3330 c5         1 K2H       0.108300
     20 CBF          4.0020    -2.2190     0.6460 c5         1 K2H       0.080300
     21 N1           4.5870     3.5000    -0.6040 nb         1 K2H      -0.304000
     22 N3           4.9410     1.1600    -0.9270 nb         1 K2H      -0.214000
     23 N6           2.6220     4.4010     0.1990 nv         1 K2H      -1.066900
     24 N7           1.6310     1.5040     0.3220 nd         1 K2H      -0.557100
     25 NAO         -0.0480    -2.7380     0.2480 n3         1 K2H      -0.707600
     26 NAT         -4.5570     0.0690    -0.8050 na         1 K2H      -0.398300
     27 NAV         -6.3000     1.4580    -1.7630 nb         1 K2H      -0.222000
     28 NAX         -7.0150     3.1560    -0.2400 nb         1 K2H      -0.305000
     29 NBA         -4.3700     1.0420     1.1930 nd         1 K2H      -0.525100
     30 NBB         -6.1410     3.4280     1.8770 nv         1 K2H      -1.061900
     31 OAL          2.3980    -2.2500    -1.0670 os         1 K2H      -0.425000
     32 OBE          4.5050    -4.2290    -0.6000 oh         1 K2H      -0.704000
     33 OBG          5.3750    -1.9940     0.7700 oh         1 K2H      -0.689000
     34 H1           6.2960     2.6390    -1.3280 h5         1 K2H       0.044100
     35 H2           0.9800    -0.5150     0.3320 h5         1 K2H       0.091800
     36 H3           4.2510    -1.3860    -1.3420 h2         1 K2H       0.121700
     37 H4           2.0560    -4.2610    -1.0490 h1         1 K2H       0.098700
     38 H5           0.9670    -4.4320     1.0510 h1         1 K2H       0.036700
     39 H6           1.5040    -2.8520     1.5990 h1         1 K2H       0.036700
     40 H7          -0.4620    -2.1990     2.2190 h1         1 K2H       0.055200
     41 H8          -1.4480    -3.5360     1.6500 h1         1 K2H       0.055200
     42 H9          -7.7440     2.8600    -2.1280 h5         1 K2H       0.047100
     43 H10         -0.9450    -4.4410    -0.6720 h1         1 K2H       0.040700
     44 H11         -1.5510    -2.8620    -1.1960 h1         1 K2H       0.040700
     45 H12          0.0210    -3.4060    -1.7400 h1         1 K2H       0.040700
     46 H13          3.5420    -4.2830     1.2420 h1         1 K2H       0.054700
     47 H14          3.4600    -1.8840     1.5380 h1         1 K2H       0.056700
     48 H15          1.7080     4.3030     0.6030 hn         1 K2H       0.505000
     49 H16          3.0340     5.3170     0.1700 hn         1 K2H       0.505000
     50 H18         -4.3730    -0.5730    -1.5610 hn         1 K2H       0.374000
     51 H20         -6.7560     4.2080     2.0330 hn         1 K2H       0.508500
     52 H21         -5.5170     3.1560     2.6170 hn         1 K2H       0.508500
     53 H22          5.4020    -3.9870    -0.3380 ho         1 K2H       0.526000
     54 H23          5.6440    -2.2020     1.6710 ho         1 K2H       0.514000
@<TRIPOS>BOND
     1     1    21 ar  
     2     1    22 ar  
     3     1    34 1   
     4     2     3 ar  
     5     2     5 1   
     6     2    22 ar  
     7     3     4 ar  
     8     3    24 1   
     9     4    21 ar  
    10     4    23 1   
    11     5     6 1   
    12     5     7 1   
    13     6    24 2   
    14     6    35 1   
    15     7    20 1   
    16     7    31 1   
    17     7    36 1   
    18     8     9 1   
    19     8    19 1   
    20     8    31 1   
    21     8    37 1   
    22     9    25 1   
    23     9    38 1   
    24     9    39 1   
    25    10    11 1   
    26    10    25 1   
    27    10    40 1   
    28    10    41 1   
    29    11    12 3   
    30    12    13 1   
    31    13    26 1   
    32    13    29 2   
    33    14    17 ar  
    34    14    26 1   
    35    14    27 ar  
    36    15    27 ar  
    37    15    28 ar  
    38    15    42 1   
    39    16    17 ar  
    40    16    28 ar  
    41    16    30 1   
    42    17    29 1   
    43    18    25 1   
    44    18    43 1   
    45    18    44 1   
    46    18    45 1   
    47    19    20 1   
    48    19    32 1   
    49    19    46 1   
    50    20    33 1   
    51    20    47 1   
    52    23    48 1   
    53    23    49 1   
    54    26    50 1   
    55    30    51 1   
    56    30    52 1   
    57    32    53 1   
    58    33    54 1   
@<TRIPOS>SUBSTRUCTURE
     1 K2H         1 TEMP              0 ****  ****    0 ROOT
