@<TRIPOS>MOLECULE
K2H
   54    58     1     0     0
SMALL
No Charge or Current Charge


@<TRIPOS>ATOM
      1 C2           0.8980     1.3000    -2.3040 ca         1 K2H       0.177900
      2 C4           2.1230     0.2920    -0.6520 ca         1 K2H       0.130500
      3 C5           1.6950     1.2430     0.2400 ca         1 K2H      -0.099600
      4 C6           0.8260     2.2500    -0.2260 ca         1 K2H       0.448900
      5 N9           2.9550    -0.5330     0.0570 na         1 K2H      -0.299300
      6 C8           2.9970    -0.0430     1.3720 cc         1 K2H       0.411700
      7 CAK          3.6710    -1.7050    -0.4790 c5         1 K2H       0.322300
      8 CAM          2.5150    -3.7230    -0.1610 c5         1 K2H       0.165300
      9 CAN          1.5330    -3.3470     1.0010 c3         1 K2H       0.142800
     10 CAP         -0.4540    -2.0630     1.7380 c3         1 K2H       0.245900
     11 CAQ         -1.3810    -0.9960     1.3360 c1         1 K2H      -0.078100
     12 CAR         -2.1100    -0.0900     0.9820 cg         1 K2H      -0.130200
     13 CAS         -2.9250     0.9910     0.5600 cc         1 K2H       0.467700
     14 CAU         -3.5260     3.0460    -0.0370 ca         1 K2H       0.133500
     15 CAW         -4.8670     4.7530    -0.7400 ca         1 K2H       0.188900
     16 CAY         -5.8410     2.6950    -0.4890 ca         1 K2H       0.454900
     17 CAZ         -4.5920     2.1810    -0.0840 ca         1 K2H      -0.103600
     18 CBC         -0.5920    -3.4930    -0.2880 c3         1 K2H       0.146100
     19 CBD          3.9690    -4.0360     0.3030 c5         1 K2H       0.108300
     20 CBF          4.5490    -2.5940     0.5030 c5         1 K2H       0.080300
     21 N1           0.4230     2.2860    -1.5050 nb         1 K2H      -0.304000
     22 N3           1.7380     0.2990    -1.9450 nb         1 K2H      -0.214000
     23 N6           0.3600     3.2440     0.5770 nv         1 K2H      -1.066900
     24 N7           2.2330     1.0570     1.5160 nd         1 K2H      -0.557100
     25 NAO          0.2730    -2.6670     0.5930 n3         1 K2H      -0.707600
     26 NAT         -2.4760     2.2880     0.3740 na         1 K2H      -0.398300
     27 NAV         -3.6310     4.3460    -0.3610 nb         1 K2H      -0.222000
     28 NAX         -5.9840     3.9870    -0.8230 nb         1 K2H      -0.305000
     29 NBA         -4.2360     0.8780     0.2880 nd         1 K2H      -0.525100
     30 NBB         -6.9590     1.9250    -0.5760 nv         1 K2H      -1.061900
     31 OAL          2.7180    -2.6170    -1.0720 os         1 K2H      -0.425000
     32 OBE          4.7430    -4.7140    -0.6910 oh         1 K2H      -0.704000
     33 OBG          5.9620    -2.5870     0.1960 oh         1 K2H      -0.689000
     34 H1           0.5760     1.3180    -3.3450 h5         1 K2H       0.044100
     35 H2           3.5880    -0.4980     2.1570 h5         1 K2H       0.091800
     36 H3           4.3100    -1.3020    -1.2760 h2         1 K2H       0.121700
     37 H4           2.0850    -4.5670    -0.7160 h1         1 K2H       0.098700
     38 H5           1.2940    -4.2680     1.5510 h1         1 K2H       0.036700
     39 H6           2.0750    -2.7050     1.7070 h1         1 K2H       0.036700
     40 H7           0.2590    -1.6120     2.4430 h1         1 K2H       0.055200
     41 H8          -1.0110    -2.8310     2.2910 h1         1 K2H       0.055200
     42 H9          -4.9740     5.8030    -1.0090 h5         1 K2H       0.047100
     43 H10         -0.9470    -4.3890     0.2390 h1         1 K2H       0.040700
     44 H11         -1.4700    -2.9270    -0.6270 h1         1 K2H       0.040700
     45 H12         -0.0490    -3.8160    -1.1860 h1         1 K2H       0.040700
     46 H13          3.9760    -4.6050     1.2440 h1         1 K2H       0.054700
     47 H14          4.3970    -2.3020     1.5490 h1         1 K2H       0.056700
     48 H15          0.8340     3.3090     1.4770 hn         1 K2H       0.505000
     49 H16          0.1970     4.1440     0.1300 hn         1 K2H       0.505000
     50 H18         -1.5190     2.6000     0.5010 hn         1 K2H       0.374000
     51 H20         -7.7300     2.2710    -1.1410 hn         1 K2H       0.508500
     52 H21         -6.8290     0.9170    -0.5510 hn         1 K2H       0.508500
     53 H22          5.5690    -4.1620    -0.7130 ho         1 K2H       0.526000
     54 H23          6.3630    -1.7880     0.6170 ho         1 K2H       0.514000
@<TRIPOS>BOND
     1     1    21 ar  
     2     1    22 ar  
     3     1    34 1   
     4     2     3 ar  
     5     2     5 1   
     6     2    22 ar  
     7     3     4 ar  
     8     3    24 1   
     9     4    21 ar  
    10     4    23 1   
    11     5     6 1   
    12     5     7 1   
    13     6    24 2   
    14     6    35 1   
    15     7    20 1   
    16     7    31 1   
    17     7    36 1   
    18     8     9 1   
    19     8    19 1   
    20     8    31 1   
    21     8    37 1   
    22     9    25 1   
    23     9    38 1   
    24     9    39 1   
    25    10    11 1   
    26    10    25 1   
    27    10    40 1   
    28    10    41 1   
    29    11    12 3   
    30    12    13 1   
    31    13    26 1   
    32    13    29 2   
    33    14    17 ar  
    34    14    26 1   
    35    14    27 ar  
    36    15    27 ar  
    37    15    28 ar  
    38    15    42 1   
    39    16    17 ar  
    40    16    28 ar  
    41    16    30 1   
    42    17    29 1   
    43    18    25 1   
    44    18    43 1   
    45    18    44 1   
    46    18    45 1   
    47    19    20 1   
    48    19    32 1   
    49    19    46 1   
    50    20    33 1   
    51    20    47 1   
    52    23    48 1   
    53    23    49 1   
    54    26    50 1   
    55    30    51 1   
    56    30    52 1   
    57    32    53 1   
    58    33    54 1   
@<TRIPOS>SUBSTRUCTURE
     1 K2H         1 TEMP              0 ****  ****    0 ROOT
