@<TRIPOS>MOLECULE
K2I
   12    12     1     0     0
SMALL
abcg2


@<TRIPOS>ATOM
      1 O1         -19.4370   -60.2700    25.9310 o          1 K2I      -0.449100
      2 C5         -19.0320   -61.4040    25.8660 c          1 K2I       0.557500
      3 C4         -18.5860   -62.1540    27.0750 cc         1 K2I      -0.109500
      4 C1         -18.5020   -63.3630    24.4920 cc         1 K2I      -0.109500
      5 C2         -18.0540   -64.1130    25.7000 c          1 K2I       0.557500
      6 C3         -18.1330   -63.4050    26.9930 cd         1 K2I      -0.209200
      7 C          -18.9560   -62.1130    24.5740 cd         1 K2I      -0.209200
      8 O          -17.6470   -65.2460    25.6350 o          1 K2I      -0.449100
      9 BR         -18.6990   -61.2410    28.6930 br         1 K2I      -0.013700
     10 BR1        -18.3900   -64.2770    22.8740 br         1 K2I      -0.013700
     11 H1         -17.8000   -63.9630    27.8590 ha         1 K2I       0.224000
     12 H2         -19.2890   -61.5570    23.7060 ha         1 K2I       0.224000
@<TRIPOS>BOND
     1     1     2 2   
     2     2     3 1   
     3     2     7 1   
     4     3     6 2   
     5     3     9 1   
     6     4     5 1   
     7     4     7 2   
     8     4    10 1   
     9     5     6 1   
    10     5     8 2   
    11     6    11 1   
    12     7    12 1   
@<TRIPOS>SUBSTRUCTURE
     1 K2I         1 TEMP              0 ****  ****    0 ROOT
