@<TRIPOS>MOLECULE
K2I
   12    12     1     0     0
SMALL
No Charge or Current Charge


@<TRIPOS>ATOM
      1 O1         -19.4640   -60.2190    25.9210 o          1 K2I      -0.449100
      2 C5         -19.0460   -61.3680    25.8720 c          1 K2I       0.557500
      3 C4         -18.5970   -62.1220    27.0730 cc         1 K2I      -0.109500
      4 C1         -18.4900   -63.3960    24.4930 cc         1 K2I      -0.109500
      5 C2         -18.0410   -64.1490    25.6940 c          1 K2I       0.557500
      6 C3         -18.1300   -63.4210    26.9770 cd         1 K2I      -0.209200
      7 C          -18.9580   -62.0960    24.5900 cd         1 K2I      -0.209200
      8 O          -17.6230   -65.2990    25.6450 o          1 K2I      -0.449100
      9 Br         -18.6990   -61.2130    28.7310 br         1 K2I      -0.013700
     10 Br1        -18.3880   -64.3050    22.8360 br         1 K2I      -0.013700
     11 H1         -17.7990   -63.9830    27.8430 ha         1 K2I       0.224000
     12 H2         -19.2880   -61.5350    23.7240 ha         1 K2I       0.224000
@<TRIPOS>BOND
     1     1     2 2   
     2     2     3 1   
     3     2     7 1   
     4     3     6 2   
     5     3     9 1   
     6     4     5 1   
     7     4     7 2   
     8     4    10 1   
     9     5     6 1   
    10     5     8 2   
    11     6    11 1   
    12     7    12 1   
@<TRIPOS>SUBSTRUCTURE
     1 K2I         1 TEMP              0 ****  ****    0 ROOT
