@<TRIPOS>MOLECULE
K2J
   19    19     1     0     0
SMALL
bcc


@<TRIPOS>ATOM
      1 N1          -1.3530    -1.0970    -0.0170 nb         1 K2J      -0.796000
      2 C4           1.2260    -0.2450    -0.0030 ca         1 K2J       0.720600
      3 C5           2.7600     1.5460    -0.0050 c3         1 K2J       0.135700
      4 N           -1.9650     1.1120    -0.0400 nu         1 K2J      -0.872900
      5 C           -3.3680     0.7970    -0.0420 c3         1 K2J       0.235100
      6 O            2.4920     0.1510     0.0010 os         1 K2J      -0.431100
      7 C1          -0.9930     0.1860    -0.0250 ca         1 K2J       0.942900
      8 C2          -0.3520    -1.9740     0.0000 ca         1 K2J       0.493200
      9 C3           0.9760    -1.6250     0.0090 ca         1 K2J      -0.454600
     10 N2           0.2680     0.6480    -0.0190 nb         1 K2J      -0.869000
     11 H1           2.3560     2.0320    -0.8930 h1         1 K2J       0.047033
     12 H2           2.3560     2.0410     0.8780 h1         1 K2J       0.047033
     13 H3           3.8430     1.6390    -0.0060 h1         1 K2J       0.047033
     14 H4          -1.6780     2.0730    -0.0380 hn         1 K2J       0.450800
     15 H5          -3.6610     0.2310    -0.9270 h1         1 K2J       0.040367
     16 H6          -3.6600     0.2210     0.8370 h1         1 K2J       0.040367
     17 H7          -3.9250     1.7300    -0.0370 h1         1 K2J       0.040367
     18 H8          -0.6360    -3.0210     0.0090 h4         1 K2J       0.020100
     19 H9           1.7680    -2.3570     0.0250 ha         1 K2J       0.163000
@<TRIPOS>BOND
     1     1     7 ar  
     2     1     8 ar  
     3     2     6 1   
     4     2     9 ar  
     5     2    10 ar  
     6     3     6 1   
     7     3    11 1   
     8     3    12 1   
     9     3    13 1   
    10     4     5 1   
    11     4     7 1   
    12     4    14 1   
    13     5    15 1   
    14     5    16 1   
    15     5    17 1   
    16     7    10 ar  
    17     8     9 ar  
    18     8    18 1   
    19     9    19 1   
@<TRIPOS>SUBSTRUCTURE
     1 K2J         1 TEMP              0 ****  ****    0 ROOT
