@<TRIPOS>MOLECULE
K2J
   19    19     1     0     0
SMALL
No Charge or Current Charge


@<TRIPOS>ATOM
      1 N1          -1.3630    -1.1640    -0.0130 nb         1 K2J      -0.270000
      2 C4           1.2350    -0.2470    -0.0030 ca         1 K2J       0.392300
      3 C5           2.8860     1.5690    -0.0050 c3         1 K2J       0.158900
      4 N           -2.0300     1.0780    -0.0340 nu         1 K2J      -0.928100
      5 C           -3.4840     0.8320    -0.0420 c3         1 K2J       0.235100
      6 O            2.5480     0.1680     0.0030 os         1 K2J      -0.454300
      7 C1          -1.0170     0.1360    -0.0200 ca         1 K2J       0.416900
      8 C2          -0.3510    -2.0490    -0.0000 ca         1 K2J       0.164900
      9 C3           0.9860    -1.6250     0.0050 ca         1 K2J      -0.306000
     10 N2           0.2220     0.6430    -0.0160 nb         1 K2J      -0.343000
     11 H1           2.4900     2.0620    -0.9020 h1         1 K2J       0.047033
     12 H2           2.4780     2.0760     0.8800 h1         1 K2J       0.047033
     13 H3           3.9750     1.7000     0.0020 h1         1 K2J       0.047033
     14 H4          -1.7140     2.0500    -0.0380 hn         1 K2J       0.506000
     15 H5          -3.7730     0.2550    -0.9310 h1         1 K2J       0.040367
     16 H6          -3.7850     0.2670     0.8520 h1         1 K2J       0.040367
     17 H7          -4.0360     1.7820    -0.0520 h1         1 K2J       0.040367
     18 H8          -0.6140    -3.1060     0.0050 h4         1 K2J       0.020100
     19 H9           1.8020    -2.3400     0.0160 ha         1 K2J       0.145000
@<TRIPOS>BOND
     1     1     7 ar  
     2     1     8 ar  
     3     2     6 1   
     4     2     9 ar  
     5     2    10 ar  
     6     3     6 1   
     7     3    11 1   
     8     3    12 1   
     9     3    13 1   
    10     4     5 1   
    11     4     7 1   
    12     4    14 1   
    13     5    15 1   
    14     5    16 1   
    15     5    17 1   
    16     7    10 ar  
    17     8     9 ar  
    18     8    18 1   
    19     9    19 1   
@<TRIPOS>SUBSTRUCTURE
     1 K2J         1 TEMP              0 ****  ****    0 ROOT
