@<TRIPOS>MOLECULE
K2K
   54    58     1     0     0
SMALL
bcc


@<TRIPOS>ATOM
      1 C2           8.0280    -0.9630     0.0300 ca         1 K2K       0.709900
      2 C4           5.8520    -0.6960     0.1500 ca         1 K2K       0.448800
      3 C5           5.6060    -1.9540    -0.3770 ca         1 K2K      -0.230200
      4 C6           6.7380    -2.7210    -0.7080 ca         1 K2K       0.781200
      5 N9           4.6220    -0.1550     0.3810 na         1 K2K      -0.284000
      6 C8           3.7110    -1.1020     0.0010 cc         1 K2K       0.410700
      7 CAK          4.3830     1.1640     0.9650 c5         1 K2K       0.271800
      8 CAL          4.7450     2.2770    -0.0150 c5         1 K2K       0.080100
      9 CAM          3.4200     2.4400    -0.7680 c5         1 K2K       0.069100
     10 CAN          2.3990     2.2250     0.3440 c5         1 K2K       0.136100
     11 CAP          1.0760     1.6740    -0.1400 c3         1 K2K       0.158800
     12 CAR         -1.1730     1.0790     0.4810 c3         1 K2K       0.160800
     13 CAS         -2.1750     1.0990     1.6350 c3         1 K2K      -0.000300
     14 CAT         -3.4890     0.6320     1.2280 c1         1 K2K      -0.069100
     15 CAU         -4.5730     0.2500     0.8670 cg         1 K2K      -0.156200
     16 CAV         -5.8500    -0.1980     0.4560 cc         1 K2K       0.470700
     17 CAX         -7.7320    -1.3190     0.5290 ca         1 K2K       0.459800
     18 CAZ         -9.7280    -2.0480    -0.0250 ca         1 K2K       0.712900
     19 CBB         -8.7760    -0.5150    -1.4520 ca         1 K2K       0.780200
     20 CBC         -7.6610    -0.4980    -0.5900 ca         1 K2K      -0.233200
     21 N1           7.9440    -2.1860    -0.4870 nb         1 K2K      -0.829000
     22 N3           7.0460    -0.1490     0.3770 nb         1 K2K      -0.749000
     23 N6           6.6540    -3.9450    -1.2320 nv         1 K2K      -0.954500
     24 N7           4.2590    -2.1890    -0.4610 nd         1 K2K      -0.555100
     25 NAQ          0.1150     1.5580     0.9370 n7         1 K2K      -0.804200
     26 NAW         -6.5620    -1.1130     1.1840 na         1 K2K      -0.348000
     27 NAY         -8.7460    -2.1180     0.8570 nb         1 K2K      -0.747000
     28 NBA         -9.8010    -1.3110    -1.1310 nb         1 K2K      -0.829000
     29 NBD         -6.4850     0.1930    -0.6210 nd         1 K2K      -0.528100
     30 NBE         -8.8370     0.2170    -2.5650 nv         1 K2K      -0.949500
     31 OAO          3.0250     1.3040     1.2450 os         1 K2K      -0.403600
     32 OBF          3.2470     3.7030    -1.3460 oh         1 K2K      -0.582800
     33 OBG          5.0380     3.4210     0.7380 oh         1 K2K      -0.578800
     34 H1           9.0340    -0.5910     0.1860 h5         1 K2K       0.047100
     35 H2           2.6480    -0.9460     0.0960 h5         1 K2K       0.070800
     36 H3           4.9720     1.2250     1.8840 h2         1 K2K       0.125700
     37 H4           5.5760     1.9980    -0.6730 h1         1 K2K       0.082700
     38 H5           3.3290     1.6430    -1.5180 h1         1 K2K       0.056700
     39 H6           2.2190     3.1680     0.8740 h1         1 K2K       0.098700
     40 H7           0.6830     2.3760    -0.8810 h1         1 K2K       0.040200
     41 H8           1.2450     0.7250    -0.6750 h1         1 K2K       0.040200
     42 H9          -1.1310     0.0680     0.0520 h1         1 K2K       0.040200
     43 H10         -1.5280     1.7400    -0.3130 h1         1 K2K       0.040200
     44 H11         -1.8160     0.4700     2.4540 hc         1 K2K       0.072200
     45 H12         -2.2560     2.1150     2.0320 hc         1 K2K       0.072200
     46 H13        -10.5940    -2.6710     0.1750 h5         1 K2K       0.048100
     47 H14          5.7640    -4.3870    -1.3820 hn         1 K2K       0.452300
     48 H15          7.4880    -4.4710    -1.4270 hn         1 K2K       0.452300
     49 H16          0.4730     0.9160     1.6350 hn         1 K2K       0.364800
     50 H18         -6.2680    -1.5440     2.0480 hn         1 K2K       0.323700
     51 H20         -9.6850     0.2430    -3.1040 hn         1 K2K       0.451800
     52 H21         -8.1140     0.8780    -2.7880 hn         1 K2K       0.451800
     53 H22          3.6780     3.7110    -2.2070 ho         1 K2K       0.419000
     54 H23          4.8160     4.1910     0.2000 ho         1 K2K       0.426000
@<TRIPOS>BOND
     1     1    21 ar  
     2     1    22 ar  
     3     1    34 1   
     4     2     3 ar  
     5     2     5 1   
     6     2    22 ar  
     7     3     4 ar  
     8     3    24 1   
     9     4    21 ar  
    10     4    23 1   
    11     5     6 1   
    12     5     7 1   
    13     6    24 2   
    14     6    35 1   
    15     7     8 1   
    16     7    31 1   
    17     7    36 1   
    18     8     9 1   
    19     8    33 1   
    20     8    37 1   
    21     9    10 1   
    22     9    32 1   
    23     9    38 1   
    24    10    11 1   
    25    10    31 1   
    26    10    39 1   
    27    11    25 1   
    28    11    40 1   
    29    11    41 1   
    30    12    13 1   
    31    12    25 1   
    32    12    42 1   
    33    12    43 1   
    34    13    14 1   
    35    13    44 1   
    36    13    45 1   
    37    14    15 3   
    38    15    16 1   
    39    16    26 1   
    40    16    29 2   
    41    17    20 ar  
    42    17    26 1   
    43    17    27 ar  
    44    18    27 ar  
    45    18    28 ar  
    46    18    46 1   
    47    19    20 ar  
    48    19    28 ar  
    49    19    30 1   
    50    20    29 1   
    51    23    47 1   
    52    23    48 1   
    53    25    49 1   
    54    26    50 1   
    55    30    51 1   
    56    30    52 1   
    57    32    53 1   
    58    33    54 1   
@<TRIPOS>SUBSTRUCTURE
     1 K2K         1 TEMP              0 ****  ****    0 ROOT
