@<TRIPOS>MOLECULE
K2K
   54    58     1     0     0
SMALL
No Charge or Current Charge


@<TRIPOS>ATOM
      1 C2           6.0840    -2.4340     2.0490 ca         1 K2K       0.183900
      2 C4           5.5370    -0.9500     0.3970 ca         1 K2K       0.120500
      3 C5           5.9750    -1.8410    -0.5500 ca         1 K2K      -0.099600
      4 C6           6.4870    -3.0800    -0.1100 ca         1 K2K       0.452900
      5 N9           5.1030     0.1410    -0.3000 na         1 K2K      -0.313300
      6 C8           5.2910    -0.1290    -1.6610 cc         1 K2K       0.410700
      7 CAK          4.5700     1.3800     0.2700 c5         1 K2K       0.324300
      8 CAL          4.8120     2.7130    -0.5400 c5         1 K2K       0.103300
      9 CAM          3.4280     2.9080    -1.2240 c5         1 K2K       0.092300
     10 CAN          2.5000     2.4420    -0.0630 c5         1 K2K       0.159300
     11 CAP          1.0250     2.1640    -0.4600 c3         1 K2K       0.158800
     12 CAR         -1.1430     1.2040     0.3310 c3         1 K2K       0.160800
     13 CAS         -1.8750     0.6810     1.5840 c3         1 K2K      -0.000300
     14 CAT         -3.2540     0.2670     1.2950 c1         1 K2K      -0.069100
     15 CAU         -4.3900    -0.0660     1.0180 cg         1 K2K      -0.156200
     16 CAV         -5.7160    -0.4760     0.7230 cc         1 K2K       0.470700
     17 CAX         -7.6860    -1.4880     0.9170 ca         1 K2K       0.131500
     18 CAZ         -9.8220    -2.1100     0.4020 ca         1 K2K       0.186900
     19 CBB         -8.7610    -0.7030    -1.0610 ca         1 K2K       0.451900
     20 CBC         -7.6260    -0.7300    -0.2260 ca         1 K2K      -0.102600
     21 N1           6.5410    -3.3850     1.1970 nb         1 K2K      -0.303000
     22 N3           5.5810    -1.2210     1.7160 nb         1 K2K      -0.223000
     23 N6           6.9430    -4.0320    -0.9670 nv         1 K2K      -1.064900
     24 N7           5.8300    -1.3480    -1.8500 nd         1 K2K      -0.555100
     25 NAQ          0.2360     1.6150     0.6670 n7         1 K2K      -0.859400
     26 NAW         -6.4750    -1.3260     1.5140 na         1 K2K      -0.398300
     27 NAY         -8.7770    -2.1960     1.2620 nb         1 K2K      -0.221000
     28 NBA         -9.8690    -1.3930    -0.7490 nb         1 K2K      -0.303000
     29 NBD         -6.3920    -0.0800    -0.3680 nd         1 K2K      -0.528100
     30 NBE         -8.8080     0.0190    -2.2130 nv         1 K2K      -1.059900
     31 OAO          3.1340     1.2260     0.3950 os         1 K2K      -0.450000
     32 OBF          3.2410     4.2840    -1.6110 oh         1 K2K      -0.705000
     33 OBG          5.0730     3.8520     0.2930 oh         1 K2K      -0.701000
     34 H1           6.1260    -2.6700     3.1110 h5         1 K2K       0.047100
     35 H2           5.0250     0.5750    -2.4400 h5         1 K2K       0.070800
     36 H3           5.0250     1.4750     1.2640 h2         1 K2K       0.125700
     37 H4           5.6130     2.5950    -1.2840 h1         1 K2K       0.082700
     38 H5           3.3270     2.2410    -2.0930 h1         1 K2K       0.056700
     39 H6           2.5040     3.1720     0.7590 h1         1 K2K       0.098700
     40 H7           0.5750     3.0990    -0.8190 h1         1 K2K       0.040200
     41 H8           1.0260     1.4560    -1.3010 h1         1 K2K       0.040200
     42 H9          -1.1300     0.4150    -0.4340 h1         1 K2K       0.040200
     43 H10         -1.7030     2.0560    -0.0790 h1         1 K2K       0.040200
     44 H11         -1.3290    -0.1730     2.0020 hc         1 K2K       0.072200
     45 H12         -1.8920     1.4630     2.3520 hc         1 K2K       0.072200
     46 H13        -10.7150    -2.6740     0.6630 h5         1 K2K       0.048100
     47 H14          6.7040    -3.9100    -1.9480 hn         1 K2K       0.507500
     48 H15          7.0090    -4.9890    -0.6310 hn         1 K2K       0.507500
     49 H16          0.7460     0.7930     1.0170 hn         1 K2K       0.420000
     50 H18         -6.1710    -1.7440     2.3800 hn         1 K2K       0.374000
     51 H20         -9.7220     0.2310    -2.6050 hn         1 K2K       0.507000
     52 H21         -8.0790     0.7130    -2.3540 hn         1 K2K       0.507000
     53 H22          2.5600     4.3070    -2.3260 ho         1 K2K       0.518000
     54 H23          4.5560     4.5720    -0.1530 ho         1 K2K       0.525000
@<TRIPOS>BOND
     1     1    21 ar  
     2     1    22 ar  
     3     1    34 1   
     4     2     3 ar  
     5     2     5 1   
     6     2    22 ar  
     7     3     4 ar  
     8     3    24 1   
     9     4    21 ar  
    10     4    23 1   
    11     5     6 1   
    12     5     7 1   
    13     6    24 2   
    14     6    35 1   
    15     7     8 1   
    16     7    31 1   
    17     7    36 1   
    18     8     9 1   
    19     8    33 1   
    20     8    37 1   
    21     9    10 1   
    22     9    32 1   
    23     9    38 1   
    24    10    11 1   
    25    10    31 1   
    26    10    39 1   
    27    11    25 1   
    28    11    40 1   
    29    11    41 1   
    30    12    13 1   
    31    12    25 1   
    32    12    42 1   
    33    12    43 1   
    34    13    14 1   
    35    13    44 1   
    36    13    45 1   
    37    14    15 3   
    38    15    16 1   
    39    16    26 1   
    40    16    29 2   
    41    17    20 ar  
    42    17    26 1   
    43    17    27 ar  
    44    18    27 ar  
    45    18    28 ar  
    46    18    46 1   
    47    19    20 ar  
    48    19    28 ar  
    49    19    30 1   
    50    20    29 1   
    51    23    47 1   
    52    23    48 1   
    53    25    49 1   
    54    26    50 1   
    55    30    51 1   
    56    30    52 1   
    57    32    53 1   
    58    33    54 1   
@<TRIPOS>SUBSTRUCTURE
     1 K2K         1 TEMP              0 ****  ****    0 ROOT
