@<TRIPOS>MOLECULE
K2L
   46    49     1     0     0
SMALL
abcg2


@<TRIPOS>ATOM
      1 C10         30.4430   -47.7770   -11.6430 c3         1 K2L      -0.097700
      2 C11         29.8070   -46.3900   -11.4560 c3         1 K2L      -0.081700
      3 C13         28.2660   -44.2140   -16.6280 cc         1 K2L       0.344900
      4 C15         30.0870   -43.6210   -15.3630 cd         1 K2L       0.570800
      5 C17         28.5670   -45.3100   -14.5820 cd         1 K2L      -0.042000
      6 C20         26.5630   -45.9600   -15.9710 c3         1 K2L      -0.032800
      7 C21         31.3200   -42.8410   -15.0890 c3         1 K2L      -0.144400
      8 C22         34.0620   -48.2300    -7.8590 c5         1 K2L       0.109000
      9 C23         34.9880   -48.7590    -6.7630 c5         1 K2L      -0.097400
     10 C24         32.7450   -49.4890    -6.3680 c          1 K2L       0.565000
     11 C1          34.0360   -49.1760    -5.6490 c5         1 K2L      -0.164400
     12 N2          32.8200   -48.9520    -7.6120 n          1 K2L      -0.373300
     13 C3          29.5080   -45.7430   -12.7610 cc         1 K2L       0.534300
     14 C4          30.7740   -48.4100   -10.3380 cc         1 K2L       0.408800
     15 N5          31.9030   -48.2380    -9.6840 nd         1 K2L      -0.710000
     16 C6          31.7720   -48.9340    -8.5260 cd         1 K2L       0.369900
     17 C7          30.5430   -49.5390    -8.4670 cc         1 K2L      -0.234000
     18 N8          29.9240   -49.1870    -9.6400 na         1 K2L      -0.152500
     19 C9          28.5950   -49.5950   -10.0400 c3         1 K2L       0.057900
     20 N12         29.3850   -43.4690   -16.4400 nc         1 K2L      -0.699000
     21 C14         27.7950   -45.1500   -15.7510 cd         1 K2L      -0.100300
     22 N16         29.6840   -44.5330   -14.4370 na         1 K2L       0.070900
     23 N18         28.4470   -46.0860   -13.5220 nc         1 K2L      -0.405300
     24 N19         30.2860   -44.8090   -13.2710 nd         1 K2L      -0.580100
     25 H32         31.3650   -47.6770   -12.2170 hc         1 K2L       0.068200
     26 H33         29.7750   -48.4150   -12.2250 hc         1 K2L       0.068200
     27 H34         30.4860   -45.7550   -10.8870 hc         1 K2L       0.071200
     28 H35         28.8810   -46.4770   -10.8850 hc         1 K2L       0.071200
     29 H36         27.7330   -44.0250   -17.5520 h4         1 K2L       0.032100
     30 H38         26.7910   -47.0260   -15.9870 hc         1 K2L       0.053700
     31 H37         25.8380   -45.7970   -15.1730 hc         1 K2L       0.053700
     32 H39         26.0920   -45.6990   -16.9170 hc         1 K2L       0.053700
     33 H41         31.5170   -42.1750   -15.9240 hc         1 K2L       0.073367
     34 H42         31.2140   -42.2490   -14.1790 hc         1 K2L       0.073367
     35 H40         32.1760   -43.5010   -14.9480 hc         1 K2L       0.073367
     36 H43         34.4360   -48.4330    -8.8600 h1         1 K2L       0.061200
     37 H44         33.8990   -47.1520    -7.7740 h1         1 K2L       0.061200
     38 H46         35.7160   -48.0120    -6.4540 hc         1 K2L       0.056700
     39 H45         35.5350   -49.6270    -7.1320 hc         1 K2L       0.056700
     40 H26         34.3790   -50.0290    -5.0660 hc         1 K2L       0.076700
     41 H27         33.8440   -48.3580    -4.9470 hc         1 K2L       0.076700
     42 H28         30.0660   -50.1710    -7.7410 h4         1 K2L       0.182000
     43 H30         28.1710   -50.2230    -9.2620 h1         1 K2L       0.055367
     44 H29         27.9460   -48.7310   -10.1770 h1         1 K2L       0.055367
     45 H31         28.6260   -50.1670   -10.9660 h1         1 K2L       0.055367
     46 O25         31.7860   -50.0910    -5.9210 o          1 K2L      -0.549000
@<TRIPOS>BOND
     1     1     2 1   
     2     1    14 1   
     3     1    25 1   
     4     1    26 1   
     5     2    13 1   
     6     2    27 1   
     7     2    28 1   
     8     3    20 1   
     9     3    21 2   
    10     3    29 1   
    11     4     7 1   
    12     4    20 2   
    13     4    22 1   
    14     5    21 1   
    15     5    22 1   
    16     5    23 2   
    17     6    21 1   
    18     6    30 1   
    19     6    31 1   
    20     6    32 1   
    21     7    33 1   
    22     7    34 1   
    23     7    35 1   
    24     8     9 1   
    25     8    12 1   
    26     8    36 1   
    27     8    37 1   
    28     9    11 1   
    29     9    38 1   
    30     9    39 1   
    31    10    11 1   
    32    10    12 1   
    33    10    46 2   
    34    11    40 1   
    35    11    41 1   
    36    12    16 1   
    37    13    23 1   
    38    13    24 2   
    39    14    15 2   
    40    14    18 1   
    41    15    16 1   
    42    16    17 2   
    43    17    18 1   
    44    17    42 1   
    45    18    19 1   
    46    19    43 1   
    47    19    44 1   
    48    19    45 1   
    49    22    24 1   
@<TRIPOS>SUBSTRUCTURE
     1 K2L         1 TEMP              0 ****  ****    0 ROOT
