@<TRIPOS>MOLECULE
K2L
   46    49     1     0     0
SMALL
No Charge or Current Charge


@<TRIPOS>ATOM
      1 C10         30.6340   -47.6280   -11.6430 c3         1 K2L      -0.097700
      2 C11         29.8780   -46.2830   -11.5130 c3         1 K2L      -0.081700
      3 C13         28.0510   -44.2450   -16.7110 cc         1 K2L       0.344900
      4 C15         30.0270   -43.6120   -15.5700 cd         1 K2L       0.570800
      5 C17         28.5380   -45.2360   -14.6100 cd         1 K2L      -0.042000
      6 C20         26.3880   -45.9530   -15.8080 c3         1 K2L      -0.032800
      7 C21         31.2840   -42.7890   -15.5110 c3         1 K2L      -0.144400
      8 C22         34.0540   -48.1610    -7.5100 c5         1 K2L       0.109000
      9 C23         34.9580   -48.9330    -6.4990 c5         1 K2L      -0.097400
     10 C24         32.7350   -49.8300    -6.3690 c          1 K2L       0.565000
     11 C1          33.9000   -49.4150    -5.4750 c5         1 K2L      -0.164400
     12 N2          32.7920   -48.9360    -7.4420 n          1 K2L      -0.373300
     13 C3          29.5870   -45.6360   -12.8390 cc         1 K2L       0.534300
     14 C4          30.9040   -48.2840   -10.3150 cc         1 K2L       0.408800
     15 N5          32.0050   -48.1020    -9.6070 nd         1 K2L      -0.710000
     16 C6          31.8610   -48.8610    -8.4670 cd         1 K2L       0.369900
     17 C7          30.6410   -49.4940    -8.4750 cc         1 K2L      -0.234000
     18 N8          30.0340   -49.1310    -9.6570 na         1 K2L      -0.152500
     19 C9          28.7050   -49.5640   -10.1170 c3         1 K2L       0.057900
     20 N12         29.2220   -43.4850   -16.6450 nc         1 K2L      -0.699000
     21 C14         27.6560   -45.1390   -15.7220 cd         1 K2L      -0.100300
     22 N16         29.6760   -44.5030   -14.5370 na         1 K2L       0.070900
     23 N18         28.4490   -45.9790   -13.5310 nc         1 K2L      -0.405300
     24 N19         30.3920   -44.7350   -13.3930 nd         1 K2L      -0.580100
     25 H32         31.5850   -47.4540   -12.1600 hc         1 K2L       0.068200
     26 H33         30.0610   -48.3080   -12.2840 hc         1 K2L       0.068200
     27 H34         30.4700   -45.5970   -10.8960 hc         1 K2L       0.071200
     28 H35         28.9370   -46.4440   -10.9750 hc         1 K2L       0.071200
     29 H36         27.4650   -44.0820   -17.6060 h4         1 K2L       0.032100
     30 H38         26.6100   -47.0270   -15.7820 hc         1 K2L       0.053700
     31 H37         25.7200   -45.7290   -14.9680 hc         1 K2L       0.053700
     32 H39         25.8380   -45.7500   -16.7350 hc         1 K2L       0.053700
     33 H41         31.3940   -42.1560   -16.3990 hc         1 K2L       0.073367
     34 H42         31.2780   -42.1380   -14.6310 hc         1 K2L       0.073367
     35 H40         32.1660   -43.4370   -15.4490 hc         1 K2L       0.073367
     36 H43         34.4910   -48.1480    -8.5170 h1         1 K2L       0.061200
     37 H44         33.8840   -47.1240    -7.1900 h1         1 K2L       0.061200
     38 H46         35.7370   -48.3020    -6.0560 hc         1 K2L       0.056700
     39 H45         35.4520   -49.7830    -6.9850 hc         1 K2L       0.056700
     40 H26         34.2180   -50.2280    -4.8130 hc         1 K2L       0.076700
     41 H27         33.5830   -48.5500    -4.8820 hc         1 K2L       0.076700
     42 H28         30.1710   -50.1470    -7.7530 h4         1 K2L       0.182000
     43 H30         28.2340   -50.1980    -9.3560 h1         1 K2L       0.055367
     44 H29         28.0700   -48.6870   -10.2950 h1         1 K2L       0.055367
     45 H31         28.8050   -50.1350   -11.0490 h1         1 K2L       0.055367
     46 O25         32.0520   -50.8430    -6.3070 o          1 K2L      -0.549000
@<TRIPOS>BOND
     1     1     2 1   
     2     1    14 1   
     3     1    25 1   
     4     1    26 1   
     5     2    13 1   
     6     2    27 1   
     7     2    28 1   
     8     3    20 1   
     9     3    21 2   
    10     3    29 1   
    11     4     7 1   
    12     4    20 2   
    13     4    22 1   
    14     5    21 1   
    15     5    22 1   
    16     5    23 2   
    17     6    21 1   
    18     6    30 1   
    19     6    31 1   
    20     6    32 1   
    21     7    33 1   
    22     7    34 1   
    23     7    35 1   
    24     8     9 1   
    25     8    12 1   
    26     8    36 1   
    27     8    37 1   
    28     9    11 1   
    29     9    38 1   
    30     9    39 1   
    31    10    11 1   
    32    10    12 1   
    33    10    46 2   
    34    11    40 1   
    35    11    41 1   
    36    12    16 1   
    37    13    23 1   
    38    13    24 2   
    39    14    15 2   
    40    14    18 1   
    41    15    16 1   
    42    16    17 2   
    43    17    18 1   
    44    17    42 1   
    45    18    19 1   
    46    19    43 1   
    47    19    44 1   
    48    19    45 1   
    49    22    24 1   
@<TRIPOS>SUBSTRUCTURE
     1 K2L         1 TEMP              0 ****  ****    0 ROOT
