@<TRIPOS>MOLECULE
K2M
   29    30     1     0     0
SMALL
bcc


@<TRIPOS>ATOM
      1 N1          -2.3660     0.1690     0.0440 n          1 K2M      -0.486800
      2 C4          -1.2640     1.1070    -0.0840 c6         1 K2M       0.086500
      3 C5           1.5390    -1.1960    -0.1060 c          1 K2M       0.615600
      4 C6           2.6110    -0.1910     0.0430 cc         1 K2M       0.165200
      5 C7           3.9400    -0.3230    -0.2050 cd         1 K2M      -0.194300
      6 C8           4.5440     0.9020     0.1900 cd         1 K2M      -0.281300
      7 N           -4.6360    -0.2200     0.3980 nt         1 K2M      -0.655000
      8 C           -3.6380     0.6680     0.1250 c          1 K2M       0.773100
      9 O           -3.8760     1.8630    -0.0190 o          1 K2M      -0.638100
     10 C1          -1.9670    -1.1220     0.5760 c6         1 K2M       0.086500
     11 C2          -0.8280    -1.7220    -0.2330 c6         1 K2M       0.088000
     12 C3          -0.1430     0.4850    -0.8950 c6         1 K2M       0.088000
     13 C9           3.5380     1.6770     0.6640 cc         1 K2M       0.250600
     14 N2           0.2710    -0.7790    -0.3110 n          1 K2M      -0.472800
     15 O1           1.8450    -2.3770    -0.0080 o          1 K2M      -0.586100
     16 O2           2.3640     1.0260     0.5800 os         1 K2M      -0.319800
     17 H1          -1.6040     2.0060    -0.5890 h1         1 K2M       0.058200
     18 H2          -0.8850     1.3970     0.9040 h1         1 K2M       0.058200
     19 H3           4.4280    -1.1880    -0.6250 ha         1 K2M       0.174000
     20 H4           5.5860     1.1680     0.1350 ha         1 K2M       0.165000
     21 H5          -4.5400    -1.1970     0.1820 hn         1 K2M       0.302000
     22 H6          -5.5680     0.1350     0.2630 hn         1 K2M       0.302000
     23 H7          -1.6520    -1.0200     1.6220 h1         1 K2M       0.058200
     24 H8          -2.7860    -1.8360     0.5560 h1         1 K2M       0.058200
     25 H9          -0.4980    -2.6400     0.2460 h1         1 K2M       0.062200
     26 H10         -1.1780    -1.9730    -1.2400 h1         1 K2M       0.062200
     27 H11         -0.4990     0.2930    -1.9130 h1         1 K2M       0.062200
     28 H12          0.6810     1.1850    -0.9730 h1         1 K2M       0.062200
     29 H13          3.5100     2.6690     1.0850 h4         1 K2M       0.056100
@<TRIPOS>BOND
     1     1     2 1   
     2     1     8 1   
     3     1    10 1   
     4     2    12 1   
     5     2    17 1   
     6     2    18 1   
     7     3     4 1   
     8     3    14 1   
     9     3    15 2   
    10     4     5 2   
    11     4    16 1   
    12     5     6 1   
    13     5    19 1   
    14     6    13 2   
    15     6    20 1   
    16     7     8 1   
    17     7    21 1   
    18     7    22 1   
    19     8     9 2   
    20    10    11 1   
    21    10    23 1   
    22    10    24 1   
    23    11    14 1   
    24    11    25 1   
    25    11    26 1   
    26    12    14 1   
    27    12    27 1   
    28    12    28 1   
    29    13    16 1   
    30    13    29 1   
@<TRIPOS>SUBSTRUCTURE
     1 K2M         1 TEMP              0 ****  ****    0 ROOT
