@<TRIPOS>MOLECULE
K2M
   29    30     1     0     0
SMALL
No Charge or Current Charge


@<TRIPOS>ATOM
      1 N1          -2.5450     0.1750    -0.0440 n          1 K2M      -0.419800
      2 C4          -1.4320     1.1510    -0.2170 c6         1 K2M       0.086500
      3 C5           1.6570    -1.1420    -0.2220 c          1 K2M       0.548600
      4 C6           2.7400    -0.1310     0.0070 cc         1 K2M       0.055500
      5 C7           4.0840    -0.3880    -0.0810 cd         1 K2M      -0.111000
      6 C8           4.7580     0.7960     0.2820 cd         1 K2M      -0.198000
      7 N           -4.7870    -0.2420     0.5270 nt         1 K2M      -0.588000
      8 C           -3.8540     0.6540     0.1540 c          1 K2M       0.639100
      9 O           -4.1630     1.8220     0.0000 o          1 K2M      -0.638100
     10 C1          -2.1320    -1.1970     0.3850 c6         1 K2M       0.086500
     11 C2          -0.7850    -1.7070    -0.1900 c6         1 K2M       0.088000
     12 C3          -0.1310     0.5700    -0.8180 c6         1 K2M       0.088000
     13 C9           3.8050     1.7250     0.5950 cc         1 K2M       0.140900
     14 N2           0.3070    -0.6990    -0.1730 n          1 K2M      -0.405800
     15 O1           1.9130    -2.3280    -0.4090 o          1 K2M      -0.586100
     16 O2           2.5550     1.1680     0.4440 os         1 K2M      -0.231000
     17 H1          -1.7630     1.9810    -0.8570 h1         1 K2M       0.058200
     18 H2          -1.1980     1.5790     0.7680 h1         1 K2M       0.058200
     19 H3           4.5380    -1.3310    -0.3720 ha         1 K2M       0.156000
     20 H4           5.8320     0.9470     0.3190 ha         1 K2M       0.147000
     21 H5          -4.5390    -1.2100     0.6530 hn         1 K2M       0.302000
     22 H6          -5.7340     0.0700     0.6750 hn         1 K2M       0.302000
     23 H7          -2.0590    -1.1980     1.4820 h1         1 K2M       0.058200
     24 H8          -2.9040    -1.9280     0.1110 h1         1 K2M       0.058200
     25 H9          -0.4830    -2.5990     0.3770 h1         1 K2M       0.062200
     26 H10         -0.9450    -2.0250    -1.2300 h1         1 K2M       0.062200
     27 H11         -0.3160     0.3580    -1.8800 h1         1 K2M       0.062200
     28 H12          0.6390     1.3460    -0.7990 h1         1 K2M       0.062200
     29 H13          3.8700     2.7540     0.9250 h4         1 K2M       0.056100
@<TRIPOS>BOND
     1     1     2 1   
     2     1     8 1   
     3     1    10 1   
     4     2    12 1   
     5     2    17 1   
     6     2    18 1   
     7     3     4 1   
     8     3    14 1   
     9     3    15 2   
    10     4     5 2   
    11     4    16 1   
    12     5     6 1   
    13     5    19 1   
    14     6    13 2   
    15     6    20 1   
    16     7     8 1   
    17     7    21 1   
    18     7    22 1   
    19     8     9 2   
    20    10    11 1   
    21    10    23 1   
    22    10    24 1   
    23    11    14 1   
    24    11    25 1   
    25    11    26 1   
    26    12    14 1   
    27    12    27 1   
    28    12    28 1   
    29    13    16 1   
    30    13    29 1   
@<TRIPOS>SUBSTRUCTURE
     1 K2M         1 TEMP              0 ****  ****    0 ROOT
