@<TRIPOS>MOLECULE
K2N
   43    45     1     0     0
SMALL
No Charge or Current Charge


@<TRIPOS>ATOM
      1 CAA          8.2250    -0.4470     0.2550 c3         1 K2N      -0.100100
      2 CAB         -2.7070    -2.3080     1.3810 c3         1 K2N      -0.125100
      3 OAD          4.6430     1.6490    -0.6570 o          1 K2N      -0.478000
      4 CAE         -6.9650     0.7680     0.0160 ca         1 K2N      -0.101000
      5 CAF         -6.5510    -0.4300    -0.5860 ca         1 K2N      -0.116500
      6 CAG         -6.0100     1.6370     0.5650 ca         1 K2N      -0.116500
      7 CAH         -5.1870    -0.7650    -0.6310 ca         1 K2N      -0.089000
      8 CAI         -4.6450     1.3040     0.5200 ca         1 K2N      -0.089000
      9 CAJ          1.3810    -1.1520    -0.0940 ca         1 K2N      -0.352000
     10 CAK          7.0970     0.5160    -0.1500 c3         1 K2N       0.186600
     11 NAL         -1.8530     0.7240    -0.0860 ne         1 K2N      -0.531100
     12 NAM          1.8570     1.2000     0.1250 nb         1 K2N      -0.789000
     13 NAN          3.6360    -0.2980     0.0980 ns         1 K2N      -0.319900
     14 NAO         -0.8870    -1.9420    -0.2560 nu         1 K2N      -0.937200
     15 OAP          5.8500    -0.1560     0.0930 os         1 K2N      -0.477100
     16 CAQ          4.6960     0.5170    -0.1970 c          1 K2N       0.651100
     17 CAR         -2.7560    -0.2320    -0.1280 cf         1 K2N       0.428900
     18 CAS         -4.2120     0.0880    -0.0590 ca         1 K2N      -0.114900
     19 CAT          0.5520     1.4120     0.0970 ca         1 K2N       0.699900
     20 CAU          2.2600    -0.0750     0.0120 ca         1 K2N       0.592900
     21 CAV          0.0180    -0.8940    -0.1310 ca         1 K2N       0.393000
     22 CAW         -0.4480     0.4280    -0.0420 ca         1 K2N      -0.112600
     23 CAX         -2.3500    -1.7580    -0.0250 c6         1 K2N       0.154200
     24 HAA          8.1460    -0.7080     1.3170 hc         1 K2N       0.047033
     25 HAAA         8.1780    -1.3670    -0.3390 hc         1 K2N       0.047033
     26 H3           9.2020     0.0220     0.0880 hc         1 K2N       0.047033
     27 HAB         -2.1820    -1.7540     2.1690 hc         1 K2N       0.047700
     28 HABA        -3.7820    -2.2280     1.5770 hc         1 K2N       0.047700
     29 HABB        -2.4340    -3.3660     1.4740 hc         1 K2N       0.047700
     30 HNAC         1.0850     3.3100    -0.0370 hn         1 K2N       0.488000
     31 HNAA        -0.6130     3.0140    -0.1310 hn         1 K2N       0.488000
     32 HAF         -7.2890    -1.0980    -1.0240 ha         1 K2N       0.113000
     33 HAG         -6.3260     2.5710     1.0240 ha         1 K2N       0.113000
     34 HAH         -4.9030    -1.6910    -1.1240 ha         1 K2N       0.118000
     35 HAJ          1.7610    -2.1660    -0.1550 ha         1 K2N       0.122000
     36 HNAN         3.8870    -1.2200     0.4220 hn         1 K2N       0.168000
     37 HNAO        -0.4930    -2.8840    -0.2540 hn         1 K2N       0.482000
     38 HAX         -2.9080    -2.3440    -0.7680 h1         1 K2N       0.068700
     39 HAI         -3.9240     1.9950     0.9520 ha         1 K2N       0.118000
     40 HAK          7.1700     1.4370     0.4450 h1         1 K2N       0.050700
     41 H19          7.2030     0.7770    -1.2120 h1         1 K2N       0.050700
     42 NAC          0.2990     2.7200     0.1980 nv         1 K2N      -1.035900
     43 HAE         -8.0210     1.0270     0.0480 ha         1 K2N       0.113000
@<TRIPOS>BOND
     1     1    10 1   
     2     1    24 1   
     3     1    25 1   
     4     1    26 1   
     5     2    23 1   
     6     2    27 1   
     7     2    28 1   
     8     2    29 1   
     9     3    16 2   
    10     4     5 ar  
    11     4     6 ar  
    12     4    43 1   
    13     5     7 ar  
    14     5    32 1   
    15     6     8 ar  
    16     6    33 1   
    17     7    18 ar  
    18     7    34 1   
    19     8    18 ar  
    20     8    39 1   
    21     9    20 ar  
    22     9    21 ar  
    23     9    35 1   
    24    10    15 1   
    25    10    40 1   
    26    10    41 1   
    27    11    17 2   
    28    11    22 1   
    29    12    19 ar  
    30    12    20 ar  
    31    13    16 1   
    32    13    20 1   
    33    13    36 1   
    34    14    21 1   
    35    14    23 1   
    36    14    37 1   
    37    15    16 1   
    38    17    18 1   
    39    17    23 1   
    40    19    22 ar  
    41    19    42 1   
    42    21    22 ar  
    43    23    38 1   
    44    30    42 1   
    45    31    42 1   
@<TRIPOS>SUBSTRUCTURE
     1 K2N         1 TEMP              0 ****  ****    0 ROOT
