@<TRIPOS>MOLECULE
K2N
   43    45     1     0     0
SMALL
abcg2


@<TRIPOS>ATOM
      1 CAA          8.0940    -0.4590    -0.0750 c3         1 K2N      -0.100100
      2 CAB         -2.3870    -2.1720     1.6150 c3         1 K2N      -0.125100
      3 OAD          4.5410     1.6840     0.2200 o          1 K2N      -0.478000
      4 CAE         -6.8170     0.8400    -0.3300 ca         1 K2N      -0.101000
      5 CAF         -6.4670    -0.5010    -0.3110 ca         1 K2N      -0.116500
      6 CAG         -5.8200     1.8060    -0.2410 ca         1 K2N      -0.116500
      7 CAH         -5.1350    -0.8780    -0.2040 ca         1 K2N      -0.089000
      8 CAI         -4.4920     1.4330    -0.1360 ca         1 K2N      -0.089000
      9 CAJ          1.3410    -1.2040    -0.2360 ca         1 K2N      -0.352000
     10 CAK          6.9630     0.5390    -0.0040 c3         1 K2N       0.186600
     11 NAL         -1.8260     0.6420     0.0710 ne         1 K2N      -0.531100
     12 NAM          1.7820     1.1030     0.2830 nb         1 K2N      -0.789000
     13 NAN          3.5510    -0.3740    -0.0950 ns         1 K2N      -0.319900
     14 NAO         -0.9740    -1.9050    -0.4140 nu         1 K2N      -0.937200
     15 OAP          5.7340    -0.1920    -0.1000 os         1 K2N      -0.477100
     16 CAQ          4.5980     0.4960     0.0300 c          1 K2N       0.651100
     17 CAR         -2.7010    -0.2880     0.0070 cf         1 K2N       0.428900
     18 CAS         -4.1230     0.0820    -0.1140 ca         1 K2N      -0.114900
     19 CAT          0.4690     1.3300     0.3450 ca         1 K2N       0.699900
     20 CAU          2.1870    -0.1220    -0.0100 ca         1 K2N       0.592900
     21 CAV         -0.0300    -0.9710    -0.1560 ca         1 K2N       0.393000
     22 CAW         -0.4870     0.3230     0.1340 ca         1 K2N      -0.112600
     23 CAX         -2.3020    -1.7460     0.1470 c6         1 K2N       0.154200
     24 HAA          8.0550    -1.1670     0.7520 hc         1 K2N       0.047033
     25 HAAA         8.0830    -1.0140    -1.0130 hc         1 K2N       0.047033
     26 H3           9.0430     0.0730    -0.0160 hc         1 K2N       0.047033
     27 HAB         -1.7310    -1.5630     2.2390 hc         1 K2N       0.047700
     28 HABA        -3.4050    -2.0660     1.9920 hc         1 K2N       0.047700
     29 HABB        -2.0950    -3.2170     1.7260 hc         1 K2N       0.047700
     30 HNAC         0.7380     3.3270     0.5080 hn         1 K2N       0.488000
     31 HNAA        -0.8900     2.8220     0.4790 hn         1 K2N       0.488000
     32 HAF         -7.2310    -1.2640    -0.3800 ha         1 K2N       0.113000
     33 HAG         -6.0790     2.8570    -0.2550 ha         1 K2N       0.113000
     34 HAH         -4.9030    -1.9340    -0.1940 ha         1 K2N       0.118000
     35 HAJ          1.7290    -2.1870    -0.4750 ha         1 K2N       0.122000
     36 HNAN         3.8010    -1.3320    -0.2880 hn         1 K2N       0.168000
     37 HNAO        -0.6660    -2.8530    -0.5620 hn         1 K2N       0.482000
     38 HAX         -2.9630    -2.3800    -0.4430 h1         1 K2N       0.068700
     39 HAI         -3.7240     2.1910    -0.0690 ha         1 K2N       0.118000
     40 HAK          6.9950     1.0930     0.9350 h1         1 K2N       0.050700
     41 H19          7.0290     1.2590    -0.8220 h1         1 K2N       0.050700
     42 NAC          0.0720     2.5880     0.6610 nv         1 K2N      -1.035900
     43 HAE         -7.8560     1.1320    -0.4130 ha         1 K2N       0.113000
@<TRIPOS>BOND
     1     1    10 1   
     2     1    24 1   
     3     1    25 1   
     4     1    26 1   
     5     2    23 1   
     6     2    27 1   
     7     2    28 1   
     8     2    29 1   
     9     3    16 2   
    10     4     5 ar  
    11     4     6 ar  
    12     4    43 1   
    13     5     7 ar  
    14     5    32 1   
    15     6     8 ar  
    16     6    33 1   
    17     7    18 ar  
    18     7    34 1   
    19     8    18 ar  
    20     8    39 1   
    21     9    20 ar  
    22     9    21 ar  
    23     9    35 1   
    24    10    15 1   
    25    10    40 1   
    26    10    41 1   
    27    11    17 2   
    28    11    22 1   
    29    12    19 ar  
    30    12    20 ar  
    31    13    16 1   
    32    13    20 1   
    33    13    36 1   
    34    14    21 1   
    35    14    23 1   
    36    14    37 1   
    37    15    16 1   
    38    17    18 1   
    39    17    23 1   
    40    19    22 ar  
    41    19    42 1   
    42    21    22 ar  
    43    23    38 1   
    44    30    42 1   
    45    31    42 1   
@<TRIPOS>SUBSTRUCTURE
     1 K2N         1 TEMP              0 ****  ****    0 ROOT
