@<TRIPOS>MOLECULE
K2O
   45    44     1     0     0
SMALL
bcc


@<TRIPOS>ATOM
      1 N2          39.0430    71.0050   -54.6700 n2         1 K2O      -0.438200
      2 N4          41.3610    70.7100   -54.6060 n1         1 K2O      -0.084000
      3 CA          39.9250    65.6510   -60.7710 c3         1 K2O      -0.064300
      4 C           39.4630    64.2430   -61.0760 c          1 K2O       0.559900
      5 CB          41.1500    66.0840   -61.6080 c3         1 K2O       0.159100
      6 O           39.4170    63.3630   -60.2570 o          1 K2O      -0.500100
      7 OB1         41.4270    67.4420   -61.3710 oh         1 K2O      -0.586800
      8 CB1         40.9230    65.9160   -63.0990 c3         1 K2O      -0.094100
      9 CAO         39.2630    66.1480   -58.4710 c          1 K2O       0.665100
     10 OAR         38.1080    66.4010   -58.7710 o          1 K2O      -0.598100
     11 CAP         39.7670    66.2630   -57.0380 c3         1 K2O       0.037700
     12 CAS         40.5060    67.5950   -56.8640 c3         1 K2O      -0.112100
     13 N1          38.6350    66.1420   -56.1540 ns         1 K2O      -0.567900
     14 C7          38.7520    65.8420   -54.8490 c          1 K2O       0.669100
     15 C8          37.4530    65.8090   -54.0680 c3         1 K2O      -0.155400
     16 C9          37.5140    66.5740   -52.7450 c3         1 K2O      -0.065400
     17 C10         37.3220    68.0830   -52.8700 c3         1 K2O      -0.072400
     18 C11         38.3480    68.7850   -53.7520 c3         1 K2O      -0.107400
     19 C12         38.1920    70.2970   -53.7030 c3         1 K2O       0.157800
     20 N3          40.2410    70.8180   -54.5910 n1         1 K2O       0.231000
     21 OC7         39.8270    65.5800   -54.3260 o          1 K2O      -0.612100
     22 H2          39.0970    66.3120   -61.0520 h1         1 K2O       0.112700
     23 H3          39.1370    64.0740   -62.1160 h4         1 K2O      -0.000800
     24 H4          42.0010    65.4550   -61.3080 h1         1 K2O       0.029700
     25 H5          41.6290    67.5610   -60.4370 ho         1 K2O       0.412000
     26 H6          40.8560    64.8660   -63.3800 hc         1 K2O       0.050700
     27 H7          40.0090    66.4160   -63.4230 hc         1 K2O       0.050700
     28 H8          41.7610    66.3440   -63.6490 hc         1 K2O       0.050700
     29 H9          41.0890    65.4630   -59.0290 hn         1 K2O       0.319500
     30 H10         40.4620    65.4440   -56.8360 h1         1 K2O       0.083700
     31 H11         40.8780    67.6870   -55.8450 hc         1 K2O       0.050700
     32 H12         41.3580    67.6600   -57.5400 hc         1 K2O       0.050700
     33 H13         39.8400    68.4340   -57.0650 hc         1 K2O       0.050700
     34 H14         37.7360    66.4070   -56.5260 hn         1 K2O       0.338500
     35 H15         36.6160    66.1680   -54.6720 hc         1 K2O       0.061200
     36 H16         37.2510    64.7550   -53.8580 hc         1 K2O       0.061200
     37 H17         36.7300    66.1860   -52.0900 hc         1 K2O       0.055700
     38 H18         38.4600    66.3550   -52.2440 hc         1 K2O       0.055700
     39 H19         37.3510    68.5160   -51.8650 hc         1 K2O       0.040700
     40 H20         36.3190    68.2870   -53.2600 hc         1 K2O       0.040700
     41 H21         38.2350    68.4630   -54.7890 hc         1 K2O       0.051200
     42 H22         39.3580    68.5060   -53.4370 hc         1 K2O       0.051200
     43 H23         38.3820    70.6720   -52.6920 h1         1 K2O       0.061200
     44 H24         37.1740    70.5810   -53.9650 h1         1 K2O       0.061200
     45 N           40.2080    65.8190   -59.3710 ns         1 K2O      -0.561900
@<TRIPOS>BOND
     1     1    19 1   
     2     1    20 1   
     3     2    20 3   
     4     3     4 1   
     5     3     5 1   
     6     3    22 1   
     7     3    45 1   
     8     4     6 2   
     9     4    23 1   
    10     5     7 1   
    11     5     8 1   
    12     5    24 1   
    13     7    25 1   
    14     8    26 1   
    15     8    27 1   
    16     8    28 1   
    17     9    10 2   
    18     9    11 1   
    19     9    45 1   
    20    11    12 1   
    21    11    13 1   
    22    11    30 1   
    23    12    31 1   
    24    12    32 1   
    25    12    33 1   
    26    13    14 1   
    27    13    34 1   
    28    14    15 1   
    29    14    21 2   
    30    15    16 1   
    31    15    35 1   
    32    15    36 1   
    33    16    17 1   
    34    16    37 1   
    35    16    38 1   
    36    17    18 1   
    37    17    39 1   
    38    17    40 1   
    39    18    19 1   
    40    18    41 1   
    41    18    42 1   
    42    19    43 1   
    43    19    44 1   
    44    29    45 1   
@<TRIPOS>SUBSTRUCTURE
     1 K2O         1 TEMP              0 ****  ****    0 ROOT
