@<TRIPOS>MOLECULE
K2O
   45    44     1     0     0
SMALL
No Charge or Current Charge


@<TRIPOS>ATOM
      1 N2          40.0210    70.6240   -55.1540 n2         1 K2O      -0.438200
      2 N4          42.1730    70.4330   -54.1700 n1         1 K2O      -0.084000
      3 CA          40.1720    65.2830   -60.7030 c3         1 K2O      -0.064300
      4 C           41.3250    64.4200   -61.2730 c          1 K2O       0.559900
      5 CB          40.0930    66.6720   -61.4020 c3         1 K2O       0.182300
      6 O           42.3490    64.1540   -60.6500 o          1 K2O      -0.500100
      7 OB1         38.8740    67.3180   -61.0310 oh         1 K2O      -0.649000
      8 CB1         40.1440    66.6180   -62.9440 c3         1 K2O      -0.094100
      9 CAO         39.3030    65.7520   -58.3390 c          1 K2O       0.598100
     10 OAR         38.1960    66.0860   -58.7430 o          1 K2O      -0.598100
     11 CAP         39.6890    65.7290   -56.8320 c3         1 K2O       0.037700
     12 CAS         40.7880    66.7700   -56.5030 c3         1 K2O      -0.112100
     13 N1          38.4920    65.9480   -55.9910 ns         1 K2O      -0.500900
     14 C7          38.3930    65.6360   -54.6540 c          1 K2O       0.602100
     15 C8          37.0620    66.0140   -53.9890 c3         1 K2O      -0.155400
     16 C9          37.2100    67.0610   -52.8510 c3         1 K2O      -0.065400
     17 C10         37.3520    68.5410   -53.2930 c3         1 K2O      -0.072400
     18 C11         38.6240    68.8690   -54.1070 c3         1 K2O      -0.107400
     19 C12         38.8550    70.3850   -54.2920 c3         1 K2O       0.157800
     20 N3          41.1340    70.5890   -54.6050 n1         1 K2O       0.231000
     21 OC7         39.2870    65.0590   -54.0520 o          1 K2O      -0.612100
     22 H2          39.2550    64.7270   -60.9410 h1         1 K2O       0.112700
     23 H3          41.1650    64.0250   -62.3000 h4         1 K2O      -0.000800
     24 H4          40.9450    67.2750   -61.0580 h1         1 K2O       0.029700
     25 H5          38.5800    66.8880   -60.1850 ho         1 K2O       0.451000
     26 H6          41.1180    66.2580   -63.2970 hc         1 K2O       0.050700
     27 H7          39.3620    65.9590   -63.3410 hc         1 K2O       0.050700
     28 H8          39.9930    67.6190   -63.3670 hc         1 K2O       0.050700
     29 H9          41.1870    65.1100   -58.8000 hn         1 K2O       0.319500
     30 H10         40.0820    64.7250   -56.6230 h1         1 K2O       0.083700
     31 H11         41.0550    66.7350   -55.4400 hc         1 K2O       0.050700
     32 H12         41.6980    66.5780   -57.0830 hc         1 K2O       0.050700
     33 H13         40.4420    67.7850   -56.7350 hc         1 K2O       0.050700
     34 H14         37.6810    66.3790   -56.4210 hn         1 K2O       0.338500
     35 H15         36.3500    66.3860   -54.7350 hc         1 K2O       0.061200
     36 H16         36.6540    65.0990   -53.5440 hc         1 K2O       0.061200
     37 H17         36.3180    66.9940   -52.2150 hc         1 K2O       0.055700
     38 H18         38.0560    66.7890   -52.2070 hc         1 K2O       0.055700
     39 H19         37.3460    69.1620   -52.3880 hc         1 K2O       0.040700
     40 H20         36.4670    68.8320   -53.8720 hc         1 K2O       0.040700
     41 H21         38.5410    68.4170   -55.0990 hc         1 K2O       0.051200
     42 H22         39.4990    68.4260   -53.6140 hc         1 K2O       0.051200
     43 H23         38.9860    70.8550   -53.3070 h1         1 K2O       0.061200
     44 H24         37.9580    70.8270   -54.7460 h1         1 K2O       0.061200
     45 N           40.2990    65.3730   -59.2170 ns         1 K2O      -0.494900
@<TRIPOS>BOND
     1     1    19 1   
     2     1    20 1   
     3     2    20 3   
     4     3     4 1   
     5     3     5 1   
     6     3    22 1   
     7     3    45 1   
     8     4     6 2   
     9     4    23 1   
    10     5     7 1   
    11     5     8 1   
    12     5    24 1   
    13     7    25 1   
    14     8    26 1   
    15     8    27 1   
    16     8    28 1   
    17     9    10 2   
    18     9    11 1   
    19     9    45 1   
    20    11    12 1   
    21    11    13 1   
    22    11    30 1   
    23    12    31 1   
    24    12    32 1   
    25    12    33 1   
    26    13    14 1   
    27    13    34 1   
    28    14    15 1   
    29    14    21 2   
    30    15    16 1   
    31    15    35 1   
    32    15    36 1   
    33    16    17 1   
    34    16    37 1   
    35    16    38 1   
    36    17    18 1   
    37    17    39 1   
    38    17    40 1   
    39    18    19 1   
    40    18    41 1   
    41    18    42 1   
    42    19    43 1   
    43    19    44 1   
    44    29    45 1   
@<TRIPOS>SUBSTRUCTURE
     1 K2O         1 TEMP              0 ****  ****    0 ROOT
