@<TRIPOS>MOLECULE
K2P
   18    18     1     0     0
SMALL
bcc


@<TRIPOS>ATOM
      1 C4          -0.8250     2.8620    -0.3620 ca         1 K2P      -0.158000
      2 C5           0.1910     1.9540    -0.6190 ca         1 K2P      -0.150000
      3 C6          -0.0470     0.5990    -0.4510 ca         1 K2P       0.101100
      4 C7           1.8140    -0.6380     0.2280 c3         1 K2P       0.854700
      5 O           -1.0620    -2.1570    -0.6820 o          1 K2P      -0.806300
      6 C1          -1.2730     0.1030    -0.0170 ca         1 K2P      -0.112600
      7 C2          -2.2650     1.0440     0.2610 ca         1 K2P      -0.107000
      8 C3          -2.0570     2.4030     0.0840 ca         1 K2P      -0.149000
      9 F            2.5410     0.3800     0.7070 f          1 K2P      -0.243300
     10 F1           2.6530    -1.5440    -0.2550 f          1 K2P      -0.243300
     11 F2           1.1810    -1.1690     1.2750 f          1 K2P      -0.243300
     12 O1          -2.4130    -1.6690     1.0240 o          1 K2P      -0.806300
     13 O2           0.9990    -0.2680    -0.7580 os         1 K2P      -0.354900
     14 H1          -0.6470     3.9200    -0.5030 ha         1 K2P       0.109000
     15 H2           1.1570     2.2960    -0.9650 ha         1 K2P       0.124000
     16 H3          -3.2230     0.6930     0.6180 ha         1 K2P       0.148000
     17 H4          -2.8540     3.1040     0.2930 ha         1 K2P       0.109000
     18 C           -1.6020    -1.3840     0.1250 c          1 K2P       0.928200
@<TRIPOS>BOND
     1     1     2 ar  
     2     1     8 ar  
     3     1    14 1   
     4     2     3 ar  
     5     2    15 1   
     6     3     6 ar  
     7     3    13 1   
     8     4     9 1   
     9     4    10 1   
    10     4    11 1   
    11     4    13 1   
    12     5    18 1   
    13     6     7 ar  
    14     6    18 1   
    15     7     8 ar  
    16     7    16 1   
    17     8    17 1   
    18    12    18 1   
@<TRIPOS>SUBSTRUCTURE
     1 K2P         1 TEMP              0 ****  ****    0 ROOT
