@<TRIPOS>MOLECULE
K2P
   18    18     1     0     0
SMALL
No Charge or Current Charge


@<TRIPOS>ATOM
      1 C4          -0.7820     2.7420     0.0520 ca         1 K2P      -0.140000
      2 C5           0.2080     1.7450     0.0650 ca         1 K2P      -0.132000
      3 C6          -0.1510     0.3760     0.0010 ca         1 K2P       0.101100
      4 C7           2.2100    -0.4390     0.1150 c3         1 K2P       0.514000
      5 O           -1.6480    -2.0610    -1.1540 o          1 K2P      -0.701000
      6 C1          -1.5180     0.0250    -0.0810 ca         1 K2P      -0.112600
      7 C2          -2.5040     1.0350    -0.0840 ca         1 K2P      -0.089000
      8 C3          -2.1360     2.3880    -0.0200 ca         1 K2P      -0.131000
      9 F            2.6860     0.2620    -0.9400 f          1 K2P      -0.122000
     10 F1           2.8610    -1.6240     0.1220 f          1 K2P      -0.122000
     11 F2           2.5700     0.2110     1.2460 f          1 K2P      -0.122000
     12 O1          -2.6610    -1.8470     0.7370 o          1 K2P      -0.701000
     13 O2           0.7860    -0.6440     0.0350 os         1 K2P      -0.378100
     14 H1          -0.4970     3.7910     0.1030 ha         1 K2P       0.091000
     15 H2           1.2450     2.0590     0.1290 ha         1 K2P       0.106000
     16 H3          -3.5560     0.7650    -0.1410 ha         1 K2P       0.130000
     17 H4          -2.9020     3.1610    -0.0260 ha         1 K2P       0.091000
     18 C           -1.9430    -1.4170    -0.1560 c          1 K2P       0.717600
@<TRIPOS>BOND
     1     1     2 ar  
     2     1     8 ar  
     3     1    14 1   
     4     2     3 ar  
     5     2    15 1   
     6     3     6 ar  
     7     3    13 1   
     8     4     9 1   
     9     4    10 1   
    10     4    11 1   
    11     4    13 1   
    12     5    18 1   
    13     6     7 ar  
    14     6    18 1   
    15     7     8 ar  
    16     7    16 1   
    17     8    17 1   
    18    12    18 1   
@<TRIPOS>SUBSTRUCTURE
     1 K2P         1 TEMP              0 ****  ****    0 ROOT
