@<TRIPOS>MOLECULE
K2Q
   26    27     1     0     0
SMALL
bcc


@<TRIPOS>ATOM
      1 OAA          3.1730    -0.9690    -1.0390 o          1 K2Q      -0.829300
      2 CAK          2.7770    -0.0820    -0.2570 c          1 K2Q       0.920800
      3 OAB          3.4820     0.7850     0.2980 o          1 K2Q      -0.829300
      4 CAL          1.2910    -0.0410     0.0750 ce         1 K2Q      -0.114400
      5 CAI          0.7930     1.0860     0.9330 c6         1 K2Q      -0.028200
      6 CAG          0.4750    -1.0000    -0.3600 c2         1 K2Q      -0.245200
      7 CAO         -0.9970    -1.0880    -0.0590 c6         1 K2Q       0.243200
      8 OAD         -1.3370    -2.3950     0.3750 oh         1 K2Q      -0.597800
      9 CAF         -1.8060    -0.8000    -1.3080 c2         1 K2Q      -0.139200
     10 CAE         -2.4020     0.3370    -1.6550 c2         1 K2Q      -0.224200
     11 CAH         -2.2720     1.6490    -0.9380 c3         1 K2Q       0.181600
     12 OAJ         -0.9900     1.8270    -0.3870 os         1 K2Q      -0.394600
     13 CAN         -0.7170     1.2330     0.8630 c6         1 K2Q       0.112100
     14 CAM         -1.3860    -0.1320     1.0720 c6         1 K2Q       0.136100
     15 OAC         -0.9490    -0.6750     2.2930 oh         1 K2Q      -0.559800
     16 HAI1         1.1080     0.9360     1.9690 hc         1 K2Q       0.068200
     17 HAI2         1.2560     2.0260     0.6270 hc         1 K2Q       0.068200
     18 HAG          0.8820    -1.7860    -0.9910 ha         1 K2Q       0.142000
     19 HAN         -1.0680     1.8990     1.6680 h1         1 K2Q       0.008700
     20 HAD         -0.8620    -3.0290    -0.1730 ho         1 K2Q       0.402000
     21 HAF         -1.9210    -1.6550    -1.9670 ha         1 K2Q       0.111000
     22 HAE         -3.0000     0.3470    -2.5600 ha         1 K2Q       0.108000
     23 HAH1        -2.4090     2.4560    -1.6610 h1         1 K2Q       0.031200
     24 HAH2        -3.0650     1.7780    -0.1890 h1         1 K2Q       0.031200
     25 HAM         -2.4800    -0.0240     1.0830 h1         1 K2Q       0.018700
     26 HAC         -1.2470    -0.0920     2.9990 ho         1 K2Q       0.382000
@<TRIPOS>BOND
     1     1     2 1   
     2     2     3 1   
     3     2     4 1   
     4     4     5 1   
     5     4     6 2   
     6     5    13 1   
     7     5    16 1   
     8     5    17 1   
     9     6     7 1   
    10     6    18 1   
    11     7     8 1   
    12     7     9 1   
    13     7    14 1   
    14     8    20 1   
    15     9    10 2   
    16     9    21 1   
    17    10    11 1   
    18    10    22 1   
    19    11    12 1   
    20    11    23 1   
    21    11    24 1   
    22    12    13 1   
    23    13    14 1   
    24    13    19 1   
    25    14    15 1   
    26    14    25 1   
    27    15    26 1   
@<TRIPOS>SUBSTRUCTURE
     1 K2Q         1 TEMP              0 ****  ****    0 ROOT
