@<TRIPOS>MOLECULE
K2Q
   26    27     1     0     0
SMALL
No Charge or Current Charge


@<TRIPOS>ATOM
      1 OAA          3.0970    -1.4120    -0.9070 o          1 K2Q      -0.724000
      2 CAK          2.7770    -0.3850    -0.3230 c          1 K2Q       0.710200
      3 OAB          3.5910     0.4820    -0.0350 o          1 K2Q      -0.724000
      4 CAL          1.3220    -0.1910     0.0720 ce         1 K2Q      -0.114400
      5 CAI          0.9610     1.1320     0.7900 c6         1 K2Q      -0.028200
      6 CAG          0.3590    -1.1280    -0.1850 c2         1 K2Q      -0.295200
      7 CAO         -1.1180    -0.9790     0.1620 c6         1 K2Q       0.266400
      8 OAD         -1.5330    -2.2040     0.7730 oh         1 K2Q      -0.660000
      9 CAF         -1.9460    -0.7970    -1.1110 c2         1 K2Q      -0.189200
     10 CAE         -2.4180     0.3670    -1.6100 c2         1 K2Q      -0.274200
     11 CAH         -2.2310     1.7740    -1.0640 c3         1 K2Q       0.204800
     12 OAJ         -0.8770     1.8940    -0.6040 os         1 K2Q      -0.441000
     13 CAN         -0.5560     1.4420     0.7370 c6         1 K2Q       0.135300
     14 CAM         -1.3630     0.1810     1.1840 c6         1 K2Q       0.159300
     15 OAC         -0.9830    -0.2490     2.5070 oh         1 K2Q      -0.682000
     16 HAI1         1.2930     1.0790     1.8350 hc         1 K2Q       0.068200
     17 HAI2         1.5070     1.9740     0.3430 hc         1 K2Q       0.068200
     18 HAG          0.6250    -2.0510    -0.6990 ha         1 K2Q       0.192000
     19 HAN         -0.7810     2.2680     1.4270 h1         1 K2Q       0.008700
     20 HAD         -1.3840    -2.9070     0.1080 ho         1 K2Q       0.441000
     21 HAF         -2.1640    -1.7200    -1.6500 ha         1 K2Q       0.161000
     22 HAE         -3.0010     0.3500    -2.5310 ha         1 K2Q       0.158000
     23 HAH1        -2.4110     2.4940    -1.8740 h1         1 K2Q       0.031200
     24 HAH2        -2.9520     1.9920    -0.2650 h1         1 K2Q       0.031200
     25 HAM         -2.4370     0.4170     1.2000 h1         1 K2Q       0.018700
     26 HAC         -1.0490    -1.2320     2.4300 ho         1 K2Q       0.481000
@<TRIPOS>BOND
     1     1     2 1   
     2     2     3 1   
     3     2     4 1   
     4     4     5 1   
     5     4     6 2   
     6     5    13 1   
     7     5    16 1   
     8     5    17 1   
     9     6     7 1   
    10     6    18 1   
    11     7     8 1   
    12     7     9 1   
    13     7    14 1   
    14     8    20 1   
    15     9    10 2   
    16     9    21 1   
    17    10    11 1   
    18    10    22 1   
    19    11    12 1   
    20    11    23 1   
    21    11    24 1   
    22    12    13 1   
    23    13    14 1   
    24    13    19 1   
    25    14    15 1   
    26    14    25 1   
    27    15    26 1   
@<TRIPOS>SUBSTRUCTURE
     1 K2Q         1 TEMP              0 ****  ****    0 ROOT
