@<TRIPOS>MOLECULE
K2S
   26    26     1     0     0
SMALL
No Charge or Current Charge


@<TRIPOS>ATOM
      1 N1           2.5780     0.5900     0.6990 na         1 K2S       0.014800
      2 C4           1.1020     2.5490    -0.0220 c3         1 K2S      -0.049800
      3 C5           1.4450    -1.1330     0.2270 cc         1 K2S       0.360300
      4 C6           1.0620    -2.5760     0.0520 c3         1 K2S      -0.133400
      5 N           -2.1620    -0.0080     0.3890 n3         1 K2S      -0.693500
      6 C           -2.1380     1.2330     1.1900 c3         1 K2S       0.166600
      7 O           -1.1790     1.1980    -1.6070 o          1 K2S      -0.544500
      8 C1          -2.1730    -1.2100     1.2470 c3         1 K2S       0.166600
      9 C2           0.6400    -0.0360    -0.1360 cc         1 K2S      -0.458500
     10 C3           1.3840     1.0780     0.1640 cd         1 K2S      -0.012300
     11 N2           2.6130    -0.7970     0.7350 nd         1 K2S      -0.528800
     12 O1          -1.1940    -1.3350    -1.5390 o          1 K2S      -0.544500
     13 S           -0.9980    -0.0510    -0.8590 sy         1 K2S       1.194600
     14 H1           3.3600     1.1520     1.0280 hn         1 K2S       0.372000
     15 H2           0.1600     2.8430     0.4550 hc         1 K2S       0.068033
     16 H3           1.8950     3.1680     0.4140 hc         1 K2S       0.068033
     17 H4           1.0350     2.8040    -1.0860 hc         1 K2S       0.068033
     18 H5           0.0980    -2.7960     0.5210 hc         1 K2S       0.061367
     19 H6           0.9990    -2.8350    -1.0110 hc         1 K2S       0.061367
     20 H7           1.8060    -3.2390     0.5080 hc         1 K2S       0.061367
     21 H8          -2.9610     1.2400     1.9160 h1         1 K2S       0.050700
     22 H9          -1.1960     1.3250     1.7470 h1         1 K2S       0.050700
     23 H10         -2.2550     2.1210     0.5550 h1         1 K2S       0.050700
     24 H11         -2.9970    -1.1610     1.9700 h1         1 K2S       0.050700
     25 H12         -2.3140    -2.1230     0.6530 h1         1 K2S       0.050700
     26 H13         -1.2350    -1.3010     1.8110 h1         1 K2S       0.050700
@<TRIPOS>BOND
     1     1    10 1   
     2     1    11 1   
     3     1    14 1   
     4     2    10 1   
     5     2    15 1   
     6     2    16 1   
     7     2    17 1   
     8     3     4 1   
     9     3     9 1   
    10     3    11 2   
    11     4    18 1   
    12     4    19 1   
    13     4    20 1   
    14     5     6 1   
    15     5     8 1   
    16     5    13 1   
    17     6    21 1   
    18     6    22 1   
    19     6    23 1   
    20     7    13 2   
    21     8    24 1   
    22     8    25 1   
    23     8    26 1   
    24     9    10 2   
    25     9    13 1   
    26    12    13 2   
@<TRIPOS>SUBSTRUCTURE
     1 K2S         1 TEMP              0 ****  ****    0 ROOT
