@<TRIPOS>MOLECULE
K2S
   26    26     1     0     0
SMALL
bcc


@<TRIPOS>ATOM
      1 N1           2.4870     0.5970     0.6430 na         1 K2S       0.014400
      2 C4           1.1390     2.5520    -0.0310 c3         1 K2S      -0.049800
      3 C5           1.3810    -1.1490     0.2070 cc         1 K2S       0.425600
      4 C6           1.0920    -2.6040     0.0780 c3         1 K2S      -0.133400
      5 N           -2.0960     0.0010     0.4180 n3         1 K2S      -0.693500
      6 C           -2.1180     1.2210     1.2140 c3         1 K2S       0.166600
      7 O           -1.1900     1.2260    -1.5590 o          1 K2S      -0.615300
      8 C1          -2.1580    -1.2060     1.2340 c3         1 K2S       0.166600
      9 C2           0.5930    -0.0280    -0.1630 cc         1 K2S      -0.523800
     10 C3           1.3570     1.0930     0.1390 cd         1 K2S       0.038400
     11 N2           2.5300    -0.7350     0.6950 nd         1 K2S      -0.528800
     12 O1          -1.2080    -1.2810    -1.5350 o          1 K2S      -0.615300
     13 S           -1.0070    -0.0220    -0.8350 sy         1 K2S       1.336200
     14 H1           3.2790     1.1320     0.9680 hn         1 K2S       0.321700
     15 H2           0.2330     2.8830     0.4710 hc         1 K2S       0.068033
     16 H3           1.9760     3.1120     0.3820 hc         1 K2S       0.068033
     17 H4           1.0450     2.8090    -1.0850 hc         1 K2S       0.068033
     18 H5           0.1790    -2.8890     0.5980 hc         1 K2S       0.061367
     19 H6           0.9730    -2.8910    -0.9660 hc         1 K2S       0.061367
     20 H7           1.9150    -3.1790     0.4980 hc         1 K2S       0.061367
     21 H8          -3.0190     1.2040     1.8250 h1         1 K2S       0.050700
     22 H9          -1.2550     1.3010     1.8840 h1         1 K2S       0.050700
     23 H10         -2.1650     2.1010     0.5790 h1         1 K2S       0.050700
     24 H11         -3.0640    -1.1560     1.8340 h1         1 K2S       0.050700
     25 H12         -2.2200    -2.0950     0.6130 h1         1 K2S       0.050700
     26 H13         -1.3040    -1.2970     1.9150 h1         1 K2S       0.050700
@<TRIPOS>BOND
     1     1    10 1   
     2     1    11 1   
     3     1    14 1   
     4     2    10 1   
     5     2    15 1   
     6     2    16 1   
     7     2    17 1   
     8     3     4 1   
     9     3     9 1   
    10     3    11 2   
    11     4    18 1   
    12     4    19 1   
    13     4    20 1   
    14     5     6 1   
    15     5     8 1   
    16     5    13 1   
    17     6    21 1   
    18     6    22 1   
    19     6    23 1   
    20     7    13 2   
    21     8    24 1   
    22     8    25 1   
    23     8    26 1   
    24     9    10 2   
    25     9    13 1   
    26    12    13 2   
@<TRIPOS>SUBSTRUCTURE
     1 K2S         1 TEMP              0 ****  ****    0 ROOT
