@<TRIPOS>MOLECULE
K2T
   19    20     1     0     0
SMALL
No Charge or Current Charge


@<TRIPOS>ATOM
      1 C1           3.8910    -0.7710    -0.0640 c3         1 K2T      -0.044800
      2 C2           2.4800    -0.2030    -0.0230 ca         1 K2T      -0.082300
      3 C3           2.2770     1.1960    -0.0050 ca         1 K2T      -0.101000
      4 C4           0.9720     1.7280     0.0360 ca         1 K2T      -0.075000
      5 C5          -0.1290     0.8570     0.0610 ca         1 K2T       0.137400
      6 C6           0.0790    -0.5110     0.0450 ca         1 K2T      -0.182000
      7 C7           1.3660    -1.0670     0.0050 ca         1 K2T      -0.064000
      8 S8          -1.4280    -1.4110     0.0830 ss         1 K2T      -0.047200
      9 C9          -2.1980     0.1900     0.1180 cc         1 K2T       0.638100
     10 N10         -1.4530     1.2830     0.1020 nd         1 K2T      -0.628100
     11 N11         -3.5300     0.3560     0.1510 nv         1 K2T      -1.012200
     12 H1           4.2880    -0.9020     0.9500 hc         1 K2T       0.042033
     13 H1A          3.9150    -1.7470    -0.5620 hc         1 K2T       0.042033
     14 H1B          4.5730    -0.1070    -0.6090 hc         1 K2T       0.042033
     15 H3           3.1290     1.8710    -0.0230 ha         1 K2T       0.114000
     16 H4           0.8170     2.8030     0.0490 ha         1 K2T       0.130000
     17 H7           1.5000    -2.1470    -0.0050 ha         1 K2T       0.120000
     18 HN11        -4.1000    -0.4240    -0.1580 hn         1 K2T       0.485500
     19 HN1A        -3.8630     1.2820    -0.0860 hn         1 K2T       0.485500
@<TRIPOS>BOND
     1     1     2 1   
     2     1    12 1   
     3     1    13 1   
     4     1    14 1   
     5     2     3 ar  
     6     2     7 ar  
     7     3     4 ar  
     8     3    15 1   
     9     4     5 ar  
    10     4    16 1   
    11     5     6 ar  
    12     5    10 1   
    13     6     7 ar  
    14     6     8 1   
    15     7    17 1   
    16     8     9 1   
    17     9    10 2   
    18     9    11 1   
    19    11    18 1   
    20    11    19 1   
@<TRIPOS>SUBSTRUCTURE
     1 K2T         1 TEMP              0 ****  ****    0 ROOT
