@<TRIPOS>MOLECULE
K2T
   19    20     1     0     0
SMALL
abcg2


@<TRIPOS>ATOM
      1 C1           3.8780    -0.7720    -0.0470 c3         1 K2T      -0.044800
      2 C2           2.4850    -0.2100    -0.0340 ca         1 K2T      -0.082300
      3 C3           2.2730     1.1730    -0.0100 ca         1 K2T      -0.101000
      4 C4           1.0030     1.7240     0.0320 ca         1 K2T      -0.075000
      5 C5          -0.1060     0.8820     0.0500 ca         1 K2T       0.137400
      6 C6           0.1110    -0.5050     0.0240 ca         1 K2T      -0.182000
      7 C7           1.3810    -1.0570    -0.0190 ca         1 K2T      -0.064000
      8 S8          -1.4270    -1.3200     0.0450 ss         1 K2T      -0.047200
      9 C9          -2.2120     0.2590     0.0820 cc         1 K2T       0.638100
     10 N10         -1.4210     1.2800     0.0820 nd         1 K2T      -0.628100
     11 N11         -3.5530     0.3250     0.1580 nv         1 K2T      -1.012200
     12 H1           4.2700    -0.8800     0.9670 hc         1 K2T       0.042033
     13 H1A          3.9080    -1.7570    -0.5110 hc         1 K2T       0.042033
     14 H1B          4.5650    -0.1240    -0.5910 hc         1 K2T       0.042033
     15 H3           3.1300     1.8370    -0.0270 ha         1 K2T       0.114000
     16 H4           0.8670     2.7970     0.0460 ha         1 K2T       0.130000
     17 H7           1.5150    -2.1310    -0.0430 ha         1 K2T       0.120000
     18 HN11        -4.1070    -0.4680    -0.1180 hn         1 K2T       0.485500
     19 HN1A        -3.9740     1.2230    -0.0220 hn         1 K2T       0.485500
@<TRIPOS>BOND
     1     1     2 1   
     2     1    12 1   
     3     1    13 1   
     4     1    14 1   
     5     2     3 ar  
     6     2     7 ar  
     7     3     4 ar  
     8     3    15 1   
     9     4     5 ar  
    10     4    16 1   
    11     5     6 ar  
    12     5    10 1   
    13     6     7 ar  
    14     6     8 1   
    15     7    17 1   
    16     8     9 1   
    17     9    10 2   
    18     9    11 1   
    19    11    18 1   
    20    11    19 1   
@<TRIPOS>SUBSTRUCTURE
     1 K2T         1 TEMP              0 ****  ****    0 ROOT
