@<TRIPOS>MOLECULE
K2U
   41    42     1     0     0
SMALL
bcc


@<TRIPOS>ATOM
      1 O22         -1.0830    -2.9570    -1.2930 o          1 K2U      -0.847300
      2 C1          -1.1430    -2.0790    -0.4070 c          1 K2U       0.931600
      3 O21         -1.1330    -2.2820     0.8240 o          1 K2U      -0.847300
      4 C2          -1.2540    -0.6340    -0.9250 c3         1 K2U      -0.212400
      5 C3          -1.2070     0.5150     0.0820 c3         1 K2U      -0.034700
      6 C4          -2.4200     0.5400     1.0340 c3         1 K2U      -0.031100
      7 C5          -3.7320     0.5380     0.3060 ca         1 K2U      -0.051300
      8 C6          -4.4860    -0.6290     0.1910 ca         1 K2U      -0.120500
      9 C7          -5.6880    -0.6380    -0.5050 ca         1 K2U      -0.138500
     10 C8          -6.1560     0.5240    -1.1040 ca         1 K2U      -0.149000
     11 C9          -5.4130     1.6940    -1.0000 ca         1 K2U      -0.138500
     12 C10         -4.2140     1.6980    -0.3000 ca         1 K2U      -0.120500
     13 C11          0.0820     0.5520     0.9110 c3         1 K2U       0.255200
     14 O12          0.1580     1.6690     1.7480 oh         1 K2U      -0.602800
     15 S13          1.5350     0.4780    -0.2100 ss         1 K2U      -0.389200
     16 C14          2.8740     0.5040     1.0250 c3         1 K2U       0.064000
     17 C15          4.1730     0.2470     0.3210 ca         1 K2U      -0.056300
     18 C16          4.9460     1.3060    -0.1490 ca         1 K2U      -0.112500
     19 C17          6.1410     1.0680    -0.8160 ca         1 K2U      -0.135500
     20 C18          6.5750    -0.2340    -1.0240 ca         1 K2U      -0.139000
     21 C19          5.8070    -1.2960    -0.5640 ca         1 K2U      -0.135500
     22 C20          4.6120    -1.0560     0.1000 ca         1 K2U      -0.112500
     23 H2          -0.4780    -0.4890    -1.6820 hc         1 K2U       0.038200
     24 H3          -2.1910    -0.5590    -1.4880 hc         1 K2U       0.038200
     25 H4          -1.2340     1.4440    -0.5070 hc         1 K2U       0.009700
     26 H5          -2.3630    -0.3250     1.6930 hc         1 K2U       0.059200
     27 H6          -2.3610     1.4330     1.6600 hc         1 K2U       0.059200
     28 H7          -4.1180    -1.5410     0.6460 ha         1 K2U       0.138500
     29 H8          -6.2590    -1.5550    -0.5810 ha         1 K2U       0.116500
     30 H9          -7.0920     0.5190    -1.6480 ha         1 K2U       0.112000
     31 H10         -5.7690     2.6060    -1.4620 ha         1 K2U       0.116500
     32 H11         -3.6440     2.6170    -0.2200 ha         1 K2U       0.138500
     33 H12          0.1280    -0.3240     1.5570 h2         1 K2U       0.136700
     34 H13          0.0670     2.4620     1.2080 ho         1 K2U       0.396000
     35 H14          2.8890     1.4690     1.5310 h1         1 K2U       0.064700
     36 H15          2.6790    -0.2700     1.7700 h1         1 K2U       0.064700
     37 H16          4.6130     2.3240     0.0130 ha         1 K2U       0.137500
     38 H17          6.7340     1.9020    -1.1700 ha         1 K2U       0.121500
     39 H18          7.5070    -0.4210    -1.5410 ha         1 K2U       0.117000
     40 H19          6.1400    -2.3140    -0.7200 ha         1 K2U       0.121500
     41 H20          4.0160    -1.8890     0.4550 ha         1 K2U       0.137500
@<TRIPOS>BOND
     1     1     2 1   
     2     2     3 1   
     3     2     4 1   
     4     4     5 1   
     5     4    23 1   
     6     4    24 1   
     7     5     6 1   
     8     5    13 1   
     9     5    25 1   
    10     6     7 1   
    11     6    26 1   
    12     6    27 1   
    13     7     8 ar  
    14     7    12 ar  
    15     8     9 ar  
    16     8    28 1   
    17     9    10 ar  
    18     9    29 1   
    19    10    11 ar  
    20    10    30 1   
    21    11    12 ar  
    22    11    31 1   
    23    12    32 1   
    24    13    14 1   
    25    13    15 1   
    26    13    33 1   
    27    14    34 1   
    28    15    16 1   
    29    16    17 1   
    30    16    35 1   
    31    16    36 1   
    32    17    18 ar  
    33    17    22 ar  
    34    18    19 ar  
    35    18    37 1   
    36    19    20 ar  
    37    19    38 1   
    38    20    21 ar  
    39    20    39 1   
    40    21    22 ar  
    41    21    40 1   
    42    22    41 1   
@<TRIPOS>SUBSTRUCTURE
     1 K2U         1 TEMP              0 ****  ****    0 ROOT
