@<TRIPOS>MOLECULE
K2U
   41    42     1     0     0
SMALL
No Charge or Current Charge


@<TRIPOS>ATOM
      1 O22         -0.1880    -2.7470     0.4450 o          1 K2U      -0.742000
      2 C1          -1.2900    -2.2950     0.1780 c          1 K2U       0.721000
      3 O21         -2.3290    -2.7620     0.6160 o          1 K2U      -0.742000
      4 C2          -1.3670    -1.0480    -0.7250 c3         1 K2U      -0.212400
      5 C3          -1.2470     0.2890     0.0870 c3         1 K2U      -0.034700
      6 C4          -2.4890     0.5310     1.0070 c3         1 K2U      -0.031100
      7 C5          -3.8160     0.6180     0.2540 ca         1 K2U      -0.051300
      8 C6          -4.8180    -0.3540     0.4530 ca         1 K2U      -0.102500
      9 C7          -6.0400    -0.2670    -0.2370 ca         1 K2U      -0.120500
     10 C8          -6.2720     0.7940    -1.1270 ca         1 K2U      -0.131000
     11 C9          -5.2810     1.7700    -1.3260 ca         1 K2U      -0.120500
     12 C10         -4.0590     1.6830    -0.6370 ca         1 K2U      -0.102500
     13 C11          0.1100     0.4010     0.8650 c3         1 K2U       0.326300
     14 O12          0.1640     1.6010     1.6320 oh         1 K2U      -0.665000
     15 S13          1.5440     0.4750    -0.2920 ss         1 K2U      -0.485000
     16 C14          2.9280     0.1760     0.8990 c3         1 K2U       0.111900
     17 C15          4.2700     0.1700     0.1800 ca         1 K2U      -0.056300
     18 C16          5.0240     1.3550     0.0720 ca         1 K2U      -0.094500
     19 C17          6.2640     1.3480    -0.5900 ca         1 K2U      -0.117500
     20 C18          6.7580     0.1560    -1.1470 ca         1 K2U      -0.121000
     21 C19          6.0090    -1.0280    -1.0440 ca         1 K2U      -0.117500
     22 C20          4.7680    -1.0210    -0.3830 ca         1 K2U      -0.094500
     23 H2          -0.5250    -1.0540    -1.4240 hc         1 K2U       0.038200
     24 H3          -2.3340    -1.0200    -1.2390 hc         1 K2U       0.038200
     25 H4          -1.2470     1.1000    -0.6510 hc         1 K2U       0.009700
     26 H5          -2.5300    -0.2500     1.7750 hc         1 K2U       0.059200
     27 H6          -2.3630     1.4710     1.5570 hc         1 K2U       0.059200
     28 H7          -4.6490    -1.1800     1.1400 ha         1 K2U       0.120500
     29 H8          -6.8070    -1.0220    -0.0800 ha         1 K2U       0.098500
     30 H9          -7.2170     0.8610    -1.6600 ha         1 K2U       0.094000
     31 H10         -5.4600     2.5940    -2.0130 ha         1 K2U       0.098500
     32 H11         -3.3000     2.4460    -0.7940 ha         1 K2U       0.120500
     33 H12          0.2230    -0.4640     1.5340 h2         1 K2U       0.136700
     34 H13          0.3230     2.3150     0.9810 ho         1 K2U       0.435000
     35 H14          2.9210     0.9590     1.6680 h1         1 K2U       0.064700
     36 H15          2.7710    -0.7900     1.3990 h1         1 K2U       0.064700
     37 H16          4.6470     2.2820     0.4990 ha         1 K2U       0.119500
     38 H17          6.8420     2.2660    -0.6700 ha         1 K2U       0.103500
     39 H18          7.7170     0.1510    -1.6590 ha         1 K2U       0.099000
     40 H19          6.3890    -1.9510    -1.4770 ha         1 K2U       0.103500
     41 H20          4.1920    -1.9410    -0.3090 ha         1 K2U       0.119500
@<TRIPOS>BOND
     1     1     2 1   
     2     2     3 1   
     3     2     4 1   
     4     4     5 1   
     5     4    23 1   
     6     4    24 1   
     7     5     6 1   
     8     5    13 1   
     9     5    25 1   
    10     6     7 1   
    11     6    26 1   
    12     6    27 1   
    13     7     8 ar  
    14     7    12 ar  
    15     8     9 ar  
    16     8    28 1   
    17     9    10 ar  
    18     9    29 1   
    19    10    11 ar  
    20    10    30 1   
    21    11    12 ar  
    22    11    31 1   
    23    12    32 1   
    24    13    14 1   
    25    13    15 1   
    26    13    33 1   
    27    14    34 1   
    28    15    16 1   
    29    16    17 1   
    30    16    35 1   
    31    16    36 1   
    32    17    18 ar  
    33    17    22 ar  
    34    18    19 ar  
    35    18    37 1   
    36    19    20 ar  
    37    19    38 1   
    38    20    21 ar  
    39    20    39 1   
    40    21    22 ar  
    41    21    40 1   
    42    22    41 1   
@<TRIPOS>SUBSTRUCTURE
     1 K2U         1 TEMP              0 ****  ****    0 ROOT
