@<TRIPOS>MOLECULE
K2V
   28    29     1     0     0
SMALL
bcc


@<TRIPOS>ATOM
      1 N1           4.0250    -1.0200     0.4870 nb         1 K2V      -0.697000
      2 C4          -0.3120     1.0680     0.2320 ca         1 K2V      -0.112000
      3 C5           0.4540    -0.0640    -0.0470 cp         1 K2V      -0.034000
      4 C6          -0.2080    -1.2480    -0.3690 ca         1 K2V      -0.112000
      5 C7          -1.5930    -1.2920    -0.4100 ca         1 K2V      -0.123000
      6 C8           1.9230    -0.0090    -0.0120 cp         1 K2V      -0.264600
      7 C10          4.5940     0.0900     0.0440 ca         1 K2V       0.641900
      8 N           -4.5390     0.8750    -0.8190 n8         1 K2V      -0.887800
      9 C           -4.4250    -0.3970     1.2500 c3         1 K2V      -0.087100
     10 C1          -3.8750    -0.2400    -0.1640 c3         1 K2V       0.209800
     11 C11          2.6400     1.1000    -0.4530 ca         1 K2V       0.440700
     12 C2          -2.3600    -0.1650    -0.1340 ca         1 K2V      -0.111300
     13 C3          -1.6960     1.0170     0.1860 ca         1 K2V      -0.123000
     14 C9           2.7010    -1.0620     0.4610 ca         1 K2V       0.440700
     15 N2           3.9630     1.1570    -0.4240 nb         1 K2V      -0.697000
     16 H2           0.3580    -2.1380    -0.6180 ha         1 K2V       0.134500
     17 H3          -2.0840    -2.2200    -0.6800 ha         1 K2V       0.132000
     18 H4           5.6770     0.1300     0.0660 h5         1 K2V       0.052100
     19 H5          -4.4630     1.7160    -0.2590 hn         1 K2V       0.343800
     20 H6          -4.0950     1.0800    -1.7050 hn         1 K2V       0.343800
     21 H8          -5.5070    -0.5280     1.2270 hc         1 K2V       0.041700
     22 H9          -3.9870    -1.2620     1.7480 hc         1 K2V       0.041700
     23 H10         -4.2030     0.4840     1.8560 hc         1 K2V       0.041700
     24 H11         -4.1390    -1.1450    -0.7220 h1         1 K2V       0.065700
     25 H12          2.1250     1.9650    -0.8570 h4         1 K2V       0.026600
     26 H13         -2.2570     1.9170     0.4100 ha         1 K2V       0.132000
     27 H14          2.2340    -1.9640     0.8430 h4         1 K2V       0.026600
     28 H1           0.1730     1.9970     0.5060 ha         1 K2V       0.134500
@<TRIPOS>BOND
     1     1     7 ar  
     2     1    14 ar  
     3     2     3 ar  
     4     2    13 ar  
     5     2    28 1   
     6     3     4 ar  
     7     3     6 1   
     8     4     5 ar  
     9     4    16 1   
    10     5    12 ar  
    11     5    17 1   
    12     6    11 ar  
    13     6    14 ar  
    14     7    15 ar  
    15     7    18 1   
    16     8    10 1   
    17     8    19 1   
    18     8    20 1   
    19     9    10 1   
    20     9    21 1   
    21     9    22 1   
    22     9    23 1   
    23    10    12 1   
    24    10    24 1   
    25    11    15 ar  
    26    11    25 1   
    27    12    13 ar  
    28    13    26 1   
    29    14    27 1   
@<TRIPOS>SUBSTRUCTURE
     1 K2V         1 TEMP              0 ****  ****    0 ROOT
