@<TRIPOS>MOLECULE
K2V
   28    29     1     0     0
SMALL
No Charge or Current Charge


@<TRIPOS>ATOM
      1 N1           4.1220    -1.0860     0.1140 nb         1 K2V      -0.171000
      2 C4          -0.3370     0.9980     0.4360 ca         1 K2V      -0.094000
      3 C5           0.4590    -0.0810    -0.0230 cp         1 K2V      -0.034000
      4 C6          -0.2130    -1.2370    -0.4910 ca         1 K2V      -0.094000
      5 C7          -1.6160    -1.3130    -0.4980 ca         1 K2V      -0.105000
      6 C8           1.9550    -0.0010    -0.0150 cp         1 K2V      -0.134000
      7 C10          4.6640     0.1440    -0.0010 ca         1 K2V       0.115900
      8 N           -4.4730     0.5580    -1.0770 n8         1 K2V      -0.998200
      9 C           -4.5600    -0.0410     1.3220 c3         1 K2V      -0.087100
     10 C1          -3.9200    -0.3360    -0.0500 c3         1 K2V       0.209800
     11 C11          2.6490     1.2320    -0.1280 ca         1 K2V       0.112400
     12 C2          -2.3950    -0.2350    -0.0350 ca         1 K2V      -0.111300
     13 C3          -1.7410     0.9240     0.4310 ca         1 K2V      -0.105000
     14 C9           2.7750    -1.1530     0.1050 ca         1 K2V       0.112400
     15 N2           3.9960     1.3090    -0.1230 nb         1 K2V      -0.171000
     16 H2           0.3560    -2.0840    -0.8660 ha         1 K2V       0.116500
     17 H3          -2.0980    -2.2160    -0.8680 ha         1 K2V       0.114000
     18 H4           5.7510     0.2020     0.0040 h5         1 K2V       0.052100
     19 H5          -4.1400     1.5090    -0.8860 hn         1 K2V       0.399000
     20 H6          -4.0260     0.3310    -1.9730 hn         1 K2V       0.399000
     21 H8          -5.6420    -0.2120     1.2870 hc         1 K2V       0.041700
     22 H9          -4.1390    -0.7040     2.0880 hc         1 K2V       0.041700
     23 H10         -4.3880     0.9960     1.6340 hc         1 K2V       0.041700
     24 H11         -4.1970    -1.3660    -0.3220 h1         1 K2V       0.065700
     25 H12          2.1180     2.1760    -0.2390 h4         1 K2V       0.026600
     26 H13         -2.3160     1.7740     0.7910 ha         1 K2V       0.114000
     27 H14          2.3460    -2.1480     0.2110 h4         1 K2V       0.026600
     28 H1           0.1350     1.9010     0.8140 ha         1 K2V       0.116500
@<TRIPOS>BOND
     1     1     7 ar  
     2     1    14 ar  
     3     2     3 ar  
     4     2    13 ar  
     5     2    28 1   
     6     3     4 ar  
     7     3     6 1   
     8     4     5 ar  
     9     4    16 1   
    10     5    12 ar  
    11     5    17 1   
    12     6    11 ar  
    13     6    14 ar  
    14     7    15 ar  
    15     7    18 1   
    16     8    10 1   
    17     8    19 1   
    18     8    20 1   
    19     9    10 1   
    20     9    21 1   
    21     9    22 1   
    22     9    23 1   
    23    10    12 1   
    24    10    24 1   
    25    11    15 ar  
    26    11    25 1   
    27    12    13 ar  
    28    13    26 1   
    29    14    27 1   
@<TRIPOS>SUBSTRUCTURE
     1 K2V         1 TEMP              0 ****  ****    0 ROOT
