@<TRIPOS>MOLECULE
K2W
   71    76     1     0     0
SMALL
No Charge or Current Charge


@<TRIPOS>ATOM
      1 C2          -5.8850     2.6310    -2.4690 c5         1 K2W       0.112300
      2 C3          -4.6740     1.7450    -2.8850 c5         1 K2W       0.163300
      3 C4          -5.3280     0.8780    -0.8050 c5         1 K2W       0.315300
      4 C5          -3.8220     1.5480     1.1690 cc         1 K2W       0.400700
      5 C6          -2.4150    -0.0830     1.1330 ca         1 K2W      -0.105600
      6 C7          -1.3740    -1.0070     1.3620 ca         1 K2W       0.452900
      7 N8           5.9610     1.6430     3.9810 nb         1 K2W      -0.305000
      8 N9           5.5560    -0.5010     2.9280 nb         1 K2W      -0.213000
      9 C10         -3.2710     2.3270    -2.5220 c3         1 K2W       0.149800
     10 C11         -0.9780     1.5850    -1.9110 c3         1 K2W       0.162800
     11 C12          0.0570     0.4600    -2.1100 c3         1 K2W       0.006700
     12 C14          2.0410     0.6120    -0.3140 cg         1 K2W      -0.127200
     13 C16          4.3160     1.4160     2.2500 ca         1 K2W      -0.099600
     14 C18          6.1830     0.3170     3.8080 ca         1 K2W       0.186900
     15 C19          4.6190     0.0800     2.1540 ca         1 K2W       0.148500
     16 C20          3.6850    -1.8340     0.8180 c5         1 K2W       0.313300
     17 C21          2.2700    -2.4940     0.7580 c5         1 K2W       0.134300
     18 C1          -5.9780     2.3230    -0.9340 c5         1 K2W       0.083300
     19 C13          1.1640     0.5580    -1.1520 c1         1 K2W      -0.088100
     20 C15          3.0280     0.6560     0.7110 cc         1 K2W       0.481700
     21 C17          5.0190     2.1890     3.1960 ca         1 K2W       0.452900
     22 C22          2.6540    -3.8050     0.0220 c5         1 K2W       0.097300
     23 C23          3.6270    -3.2360    -1.0790 c5         1 K2W       0.132300
     24 C24          2.9130    -2.7990    -2.3920 c3         1 K2W       0.152600
     25 C8          -2.1250    -2.2400    -0.4140 ca         1 K2W       0.185900
     26 C9          -3.2820    -0.3310     0.0970 ca         1 K2W       0.145500
     27 N1          -4.1800     0.7040     0.1070 na         1 K2W      -0.288300
     28 N10          3.8000    -0.4190     1.1800 na         1 K2W      -0.266300
     29 N11          4.8010     3.5210     3.3570 nv         1 K2W      -1.064900
     30 N2          -2.7340     1.0950     1.8210 nd         1 K2W      -0.549100
     31 N3          -0.4730    -0.8760     2.3660 nv         1 K2W      -1.065900
     32 N4          -1.2240    -2.0920     0.5840 nb         1 K2W      -0.303000
     33 N5          -3.1560    -1.4120    -0.7020 nb         1 K2W      -0.216000
     34 N6          -2.2030     1.3190    -2.6890 n7         1 K2W      -0.863400
     35 N7           3.3210     1.8020     1.3490 nd         1 K2W      -0.535100
     36 O1          -7.3580     2.3850    -0.5050 oh         1 K2W      -0.693000
     37 O2          -4.9260     0.5230    -2.1500 os         1 K2W      -0.451000
     38 O3           1.7050    -2.7790     2.0450 oh         1 K2W      -0.671000
     39 O4           3.2990    -4.7190     0.9310 oh         1 K2W      -0.687000
     40 O5           3.8710    -2.4760    -3.4180 oh         1 K2W      -0.696000
     41 O6           4.2740    -2.0750    -0.4780 os         1 K2W      -0.425000
     42 O7          -7.1050     2.2320    -3.1030 oh         1 K2W      -0.702000
     43 H1          -5.6880     3.6950    -2.6580 h1         1 K2W       0.056700
     44 H2          -4.6860     1.5290    -3.9610 h1         1 K2W       0.109700
     45 H3          -6.0830     0.1620    -0.4560 h2         1 K2W       0.125700
     46 H4          -4.3760     2.4470     1.4200 h5         1 K2W       0.059800
     47 H5          -3.0700     3.2080    -3.1450 h1         1 K2W       0.032700
     48 H6          -3.2940     2.6780    -1.4840 h1         1 K2W       0.032700
     49 H7          -1.2260     1.6560    -0.8420 h1         1 K2W       0.041700
     50 H8          -0.5300     2.5430    -2.2090 h1         1 K2W       0.041700
     51 H9          -0.4260    -0.5170    -1.9860 hc         1 K2W       0.064200
     52 H10          0.4500     0.4970    -3.1330 hc         1 K2W       0.064200
     53 H11          6.9440    -0.1410     4.4360 h5         1 K2W       0.047100
     54 H12          4.2770    -2.3750     1.5680 h2         1 K2W       0.123700
     55 H13          1.5660    -1.9150     0.1490 h1         1 K2W       0.051700
     56 H14         -5.3850     3.0700    -0.3910 h1         1 K2W       0.050700
     57 H15          1.7690    -4.2780    -0.4290 h1         1 K2W       0.049700
     58 H16          4.3930    -3.9790    -1.3390 h1         1 K2W       0.078700
     59 H17          2.2710    -3.6220    -2.7340 h1         1 K2W       0.022200
     60 H18          2.2650    -1.9380    -2.1860 h1         1 K2W       0.022200
     61 H19         -2.0070    -3.1140    -1.0540 h5         1 K2W       0.048100
     62 H20          5.5460     4.0690     3.7790 hn         1 K2W       0.507000
     63 H21          4.2580     3.9810     2.6300 hn         1 K2W       0.507000
     64 H22         -0.3640     0.0470     2.7780 hn         1 K2W       0.507500
     65 H23          0.3490    -1.4850     2.3430 hn         1 K2W       0.507500
     66 H24         -2.5990     0.4360    -2.3370 hn         1 K2W       0.424000
     67 H26         -7.3690     2.5450     0.4710 ho         1 K2W       0.516000
     68 H27          2.0610    -3.6760     2.2640 ho         1 K2W       0.511000
     69 H28          3.4840    -5.5540     0.4370 ho         1 K2W       0.506000
     70 H29          3.3640    -2.1740    -4.2070 ho         1 K2W       0.504000
     71 H30         -7.7150     2.1370    -2.3250 ho         1 K2W       0.523000
@<TRIPOS>BOND
     1     1     2 1   
     2     1    18 1   
     3     1    42 1   
     4     1    43 1   
     5     2     9 1   
     6     2    37 1   
     7     2    44 1   
     8     3    18 1   
     9     3    27 1   
    10     3    37 1   
    11     3    45 1   
    12     4    27 1   
    13     4    30 2   
    14     4    46 1   
    15     5     6 ar  
    16     5    26 ar  
    17     5    30 1   
    18     6    31 1   
    19     6    32 ar  
    20     7    14 ar  
    21     7    21 ar  
    22     8    14 ar  
    23     8    15 ar  
    24     9    34 1   
    25     9    47 1   
    26     9    48 1   
    27    10    11 1   
    28    10    34 1   
    29    10    49 1   
    30    10    50 1   
    31    11    19 1   
    32    11    51 1   
    33    11    52 1   
    34    12    19 3   
    35    12    20 1   
    36    13    15 ar  
    37    13    21 ar  
    38    13    35 1   
    39    14    53 1   
    40    15    28 1   
    41    16    17 1   
    42    16    28 1   
    43    16    41 1   
    44    16    54 1   
    45    17    22 1   
    46    17    38 1   
    47    17    55 1   
    48    18    36 1   
    49    18    56 1   
    50    20    28 1   
    51    20    35 2   
    52    21    29 1   
    53    22    23 1   
    54    22    39 1   
    55    22    57 1   
    56    23    24 1   
    57    23    41 1   
    58    23    58 1   
    59    24    40 1   
    60    24    59 1   
    61    24    60 1   
    62    25    32 ar  
    63    25    33 ar  
    64    25    61 1   
    65    26    27 1   
    66    26    33 ar  
    67    29    62 1   
    68    29    63 1   
    69    31    64 1   
    70    31    65 1   
    71    34    66 1   
    72    36    67 1   
    73    38    68 1   
    74    39    69 1   
    75    40    70 1   
    76    42    71 1   
@<TRIPOS>SUBSTRUCTURE
     1 K2W         1 TEMP              0 ****  ****    0 ROOT
