@<TRIPOS>MOLECULE
K2W
   71    76     1     0     0
SMALL
bcc


@<TRIPOS>ATOM
      1 C2          -4.7500     2.6730    -2.4720 c5         1 K2W       0.089100
      2 C3          -3.7550     1.5260    -2.3600 c5         1 K2W       0.140100
      3 C4          -5.6510     0.9560    -1.1220 c5         1 K2W       0.262800
      4 C5          -5.0100     0.6710     1.2990 cc         1 K2W       0.400700
      5 C6          -6.4800    -0.6880     1.9620 ca         1 K2W      -0.236200
      6 C7          -7.3330    -1.5870     2.6290 ca         1 K2W       0.781200
      7 N8           7.9970     2.2720     2.2350 nb         1 K2W      -0.831000
      8 N9           7.6830     0.2060     1.0770 nb         1 K2W      -0.739000
      9 C10         -2.4850     1.8960    -1.6130 c3         1 K2W       0.149800
     10 C11         -0.3390     1.0620    -0.8890 c3         1 K2W       0.162800
     11 C12          0.5510    -0.1820    -0.8910 c3         1 K2W       0.006700
     12 C14          2.9780     0.3140     0.0630 cg         1 K2W      -0.127200
     13 C16          5.8380     1.7230     1.4820 ca         1 K2W      -0.230200
     14 C18          8.4010     1.1180     1.7100 ca         1 K2W       0.712900
     15 C19          6.4030     0.5580     0.9900 ca         1 K2W       0.476800
     16 C20          5.5150    -1.4200    -0.2150 c5         1 K2W       0.260800
     17 C21          4.7800    -2.5530     0.4920 c5         1 K2W       0.111100
     18 C1          -5.5740     2.4820    -1.1970 c5         1 K2W       0.060100
     19 C13          1.8740     0.0850    -0.3590 c1         1 K2W      -0.088100
     20 C15          4.2540     0.6590     0.5650 cc         1 K2W       0.481700
     21 C17          6.7080     2.6140     2.1420 ca         1 K2W       0.781200
     22 C22          4.7470    -3.5920    -0.6300 c5         1 K2W       0.074100
     23 C23          4.4990    -2.6970    -1.8540 c5         1 K2W       0.109100
     24 C24          3.0330    -2.6450    -2.2250 c3         1 K2W       0.129400
     25 C8          -8.4890    -1.8040     0.6520 ca         1 K2W       0.711900
     26 C9          -6.7660    -0.4450     0.6280 ca         1 K2W       0.473800
     27 N1          -5.8140     0.4430     0.2140 na         1 K2W      -0.259000
     28 N10          5.3780    -0.1250     0.4020 na         1 K2W      -0.237000
     29 N11          6.2960     3.7670     2.6650 nv         1 K2W      -0.954500
     30 N2          -5.3750     0.0200     2.3610 nd         1 K2W      -0.549100
     31 N3          -7.1790    -1.9110     3.9130 nv         1 K2W      -0.955500
     32 N4          -8.3370    -2.1310     1.9330 nb         1 K2W      -0.829000
     33 N5          -7.7610    -0.9770    -0.0770 nb         1 K2W      -0.742000
     34 N6          -1.6220     0.7430    -1.4780 n7         1 K2W      -0.808200
     35 N7           4.5030     1.7710     1.2070 nd         1 K2W      -0.535100
     36 O1          -6.8630     3.0170    -1.2380 oh         1 K2W      -0.570800
     37 O2          -4.4530     0.4800    -1.6690 os         1 K2W      -0.404600
     38 O3           5.4570    -2.9050     1.6530 oh         1 K2W      -0.548800
     39 O4           5.9980    -4.2260    -0.6660 oh         1 K2W      -0.564800
     40 O5           2.8560    -1.7390    -3.2860 oh         1 K2W      -0.573800
     41 O6           4.9930    -1.3960    -1.5110 os         1 K2W      -0.378600
     42 O7          -5.5410     2.4690    -3.6140 oh         1 K2W      -0.579800
     43 H1          -4.2470     3.6490    -2.4920 h1         1 K2W       0.056700
     44 H2          -3.4780     1.1520    -3.3490 h1         1 K2W       0.109700
     45 H3          -6.5160     0.5960    -1.6880 h2         1 K2W       0.125700
     46 H4          -4.1580     1.3340     1.2490 h5         1 K2W       0.059800
     47 H5          -1.9620     2.6540    -2.2030 h1         1 K2W       0.032700
     48 H6          -2.7270     2.3710    -0.6470 h1         1 K2W       0.032700
     49 H7          -0.4140     1.4550     0.1350 h1         1 K2W       0.041700
     50 H8           0.1360     1.8410    -1.4900 h1         1 K2W       0.041700
     51 H9           0.0820    -0.9780    -0.3060 hc         1 K2W       0.064200
     52 H10          0.6480    -0.5550    -1.9130 hc         1 K2W       0.064200
     53 H11          9.4580     0.9020     1.8170 h5         1 K2W       0.047100
     54 H12          6.5920    -1.6250    -0.2100 h2         1 K2W       0.123700
     55 H13          3.7470    -2.2410     0.6970 h1         1 K2W       0.051700
     56 H14         -5.0050     2.8740    -0.3450 h1         1 K2W       0.050700
     57 H15          3.9330    -4.3170    -0.4970 h1         1 K2W       0.049700
     58 H16          5.0660    -3.0650    -2.7170 h1         1 K2W       0.078700
     59 H17          2.7360    -3.6630    -2.5050 h1         1 K2W       0.022200
     60 H18          2.4340    -2.3660    -1.3490 h1         1 K2W       0.022200
     61 H19         -9.3210    -2.2820     0.1450 h5         1 K2W       0.048100
     62 H20          6.9480     4.3770     3.1270 hn         1 K2W       0.451800
     63 H21          5.3310     4.0440     2.6220 hn         1 K2W       0.451800
     64 H22         -6.4310    -1.5260     4.4630 hn         1 K2W       0.452300
     65 H23         -7.7970    -2.5750     4.3460 hn         1 K2W       0.452300
     66 H24         -2.0850     0.0460    -0.9060 hn         1 K2W       0.368800
     67 H26         -6.8190     3.9480    -0.9990 ho         1 K2W       0.417000
     68 H27          4.9130    -3.5170     2.1580 ho         1 K2W       0.412000
     69 H28          6.0150    -4.8240    -1.4190 ho         1 K2W       0.407000
     70 H29          1.9710    -1.8620    -3.6410 ho         1 K2W       0.405000
     71 H30         -6.3660     2.9550    -3.4970 ho         1 K2W       0.424000
@<TRIPOS>BOND
     1     1     2 1   
     2     1    18 1   
     3     1    42 1   
     4     1    43 1   
     5     2     9 1   
     6     2    37 1   
     7     2    44 1   
     8     3    18 1   
     9     3    27 1   
    10     3    37 1   
    11     3    45 1   
    12     4    27 1   
    13     4    30 2   
    14     4    46 1   
    15     5     6 ar  
    16     5    26 ar  
    17     5    30 1   
    18     6    31 1   
    19     6    32 ar  
    20     7    14 ar  
    21     7    21 ar  
    22     8    14 ar  
    23     8    15 ar  
    24     9    34 1   
    25     9    47 1   
    26     9    48 1   
    27    10    11 1   
    28    10    34 1   
    29    10    49 1   
    30    10    50 1   
    31    11    19 1   
    32    11    51 1   
    33    11    52 1   
    34    12    19 3   
    35    12    20 1   
    36    13    15 ar  
    37    13    21 ar  
    38    13    35 1   
    39    14    53 1   
    40    15    28 1   
    41    16    17 1   
    42    16    28 1   
    43    16    41 1   
    44    16    54 1   
    45    17    22 1   
    46    17    38 1   
    47    17    55 1   
    48    18    36 1   
    49    18    56 1   
    50    20    28 1   
    51    20    35 2   
    52    21    29 1   
    53    22    23 1   
    54    22    39 1   
    55    22    57 1   
    56    23    24 1   
    57    23    41 1   
    58    23    58 1   
    59    24    40 1   
    60    24    59 1   
    61    24    60 1   
    62    25    32 ar  
    63    25    33 ar  
    64    25    61 1   
    65    26    27 1   
    66    26    33 ar  
    67    29    62 1   
    68    29    63 1   
    69    31    64 1   
    70    31    65 1   
    71    34    66 1   
    72    36    67 1   
    73    38    68 1   
    74    39    69 1   
    75    40    70 1   
    76    42    71 1   
@<TRIPOS>SUBSTRUCTURE
     1 K2W         1 TEMP              0 ****  ****    0 ROOT
