@<TRIPOS>MOLECULE
K2Y
   28    28     1     0     0
SMALL
No Charge or Current Charge


@<TRIPOS>ATOM
      1 OAE         -2.2530     3.6000    -1.3220 o          1 K2Y      -0.970667
      2 PAW         -2.7940     2.9700    -0.0840 p5         1 K2Y       1.325650
      3 OAF         -2.2540     3.6710     1.1150 o          1 K2Y      -0.970667
      4 OAA         -4.2770     3.1250    -0.0900 o          1 K2Y      -0.970667
      5 OAO         -2.4310     1.3930    -0.0380 os         1 K2Y      -0.497000
      6 CAS         -1.2130     0.7290    -0.0180 ca         1 K2Y       0.141600
      7 CAM          0.0160     1.4250    -0.0370 ca         1 K2Y      -0.242500
      8 CAT          1.2400     0.7180    -0.0160 ca         1 K2Y       0.141600
      9 OAP          2.4640     1.3700    -0.0340 os         1 K2Y      -0.497000
     10 PAX          2.8410     2.9440    -0.0800 p5         1 K2Y       1.325650
     11 OAG          2.3070     3.5790    -1.3180 o          1 K2Y      -0.970667
     12 OAH          2.3060     3.6500     1.1190 o          1 K2Y      -0.970667
     13 OAB          4.3250     3.0850    -0.0830 o          1 K2Y      -0.970667
     14 CAV          1.2330    -0.7060     0.0260 ca         1 K2Y       0.141600
     15 OAR          2.4510    -1.3690     0.0460 os         1 K2Y      -0.497000
     16 PAZ          2.8130    -2.9460     0.0920 p5         1 K2Y       1.325650
     17 OAK          2.2720    -3.5770     1.3290 o          1 K2Y      -0.970667
     18 OAL          2.2740    -3.6470    -1.1080 o          1 K2Y      -0.970667
     19 OAD          4.2960    -3.1010     0.0970 o          1 K2Y      -0.970667
     20 CAN          0.0030    -1.4010     0.0450 ca         1 K2Y      -0.242500
     21 CAU         -1.2200    -0.6940     0.0240 ca         1 K2Y       0.141600
     22 OAQ         -2.4440    -1.3460     0.0420 os         1 K2Y      -0.497000
     23 PAY         -2.8220    -2.9200     0.0880 p5         1 K2Y       1.325650
     24 OAI         -2.2880    -3.5550     1.3260 o          1 K2Y      -0.970667
     25 OAJ         -4.3060    -3.0610     0.0910 o          1 K2Y      -0.970667
     26 OAC         -2.2860    -3.6260    -1.1110 o          1 K2Y      -0.970667
     27 H3           0.0210     2.5070    -0.0690 ha         1 K2Y       0.126500
     28 H8          -0.0020    -2.4830     0.0770 ha         1 K2Y       0.126500
@<TRIPOS>BOND
     1     1     2 1   
     2     2     3 1   
     3     2     4 1   
     4     2     5 1   
     5     5     6 1   
     6     6     7 ar  
     7     6    21 ar  
     8     7     8 ar  
     9     7    27 1   
    10     8     9 1   
    11     8    14 ar  
    12     9    10 1   
    13    10    11 1   
    14    10    12 1   
    15    10    13 1   
    16    14    15 1   
    17    14    20 ar  
    18    15    16 1   
    19    16    17 1   
    20    16    18 1   
    21    16    19 1   
    22    20    21 ar  
    23    20    28 1   
    24    21    22 1   
    25    22    23 1   
    26    23    24 1   
    27    23    25 1   
    28    23    26 1   
@<TRIPOS>SUBSTRUCTURE
     1 K2Y         1 TEMP              0 ****  ****    0 ROOT
