@<TRIPOS>MOLECULE
K2Y
   28    28     1     0     0
SMALL
bcc


@<TRIPOS>ATOM
      1 OAE         -2.7280     1.5550    -2.4200 o          1 K2Y      -0.970667
      2 PAW         -2.8530     2.4430    -1.1920 p5         1 K2Y       1.325650
      3 OAF         -1.9270     3.6540    -1.1920 o          1 K2Y      -0.970667
      4 OAA         -4.2790     2.7430    -0.7430 o          1 K2Y      -0.970667
      5 OAO         -2.3300     1.4670     0.1240 os         1 K2Y      -0.497000
      6 CAS         -1.1780     0.7610     0.0620 ca         1 K2Y       0.141600
      7 CAM          0.0640     1.3920     0.0260 ca         1 K2Y      -0.260500
      8 CAT          1.2620     0.6790     0.0470 ca         1 K2Y       0.141600
      9 OAP          2.4700     1.2780    -0.0120 os         1 K2Y      -0.497000
     10 PAX          2.8820     2.6280     0.9770 p5         1 K2Y       1.325650
     11 OAG          2.1860     3.8250     0.3390 o          1 K2Y      -0.970667
     12 OAH          2.3790     2.2610     2.3650 o          1 K2Y      -0.970667
     13 OAB          4.3960     2.6240     0.8100 o          1 K2Y      -0.970667
     14 CAV          1.2090    -0.7210     0.1100 ca         1 K2Y       0.141600
     15 OAR          2.3620    -1.4210     0.2080 os         1 K2Y      -0.497000
     16 PAZ          2.8540    -2.4960    -1.0410 p5         1 K2Y       1.325650
     17 OAK          1.9710    -3.7290    -0.8810 o          1 K2Y      -0.970667
     18 OAL          2.6330    -1.7250    -2.3340 o          1 K2Y      -0.970667
     19 OAD          4.3100    -2.7140    -0.6490 o          1 K2Y      -0.970667
     20 CAN         -0.0340    -1.3530     0.1190 ca         1 K2Y      -0.260500
     21 CAU         -1.2320    -0.6400     0.0950 ca         1 K2Y       0.141600
     22 OAQ         -2.4420    -1.2370     0.0780 os         1 K2Y      -0.497000
     23 PAY         -2.8540    -2.5450     1.1200 p5         1 K2Y       1.325650
     24 OAI         -2.3550    -2.1230     2.4940 o          1 K2Y      -0.970667
     25 OAJ         -4.3680    -2.5470     0.9500 o          1 K2Y      -0.970667
     26 OAC         -2.1560    -3.7670     0.5330 o          1 K2Y      -0.970667
     27 H3           0.0980     2.4730    -0.0260 ha         1 K2Y       0.144500
     28 H8          -0.0680    -2.4350     0.1400 ha         1 K2Y       0.144500
@<TRIPOS>BOND
     1     1     2 1   
     2     2     3 1   
     3     2     4 1   
     4     2     5 1   
     5     5     6 1   
     6     6     7 ar  
     7     6    21 ar  
     8     7     8 ar  
     9     7    27 1   
    10     8     9 1   
    11     8    14 ar  
    12     9    10 1   
    13    10    11 1   
    14    10    12 1   
    15    10    13 1   
    16    14    15 1   
    17    14    20 ar  
    18    15    16 1   
    19    16    17 1   
    20    16    18 1   
    21    16    19 1   
    22    20    21 ar  
    23    20    28 1   
    24    21    22 1   
    25    22    23 1   
    26    23    24 1   
    27    23    25 1   
    28    23    26 1   
@<TRIPOS>SUBSTRUCTURE
     1 K2Y         1 TEMP              0 ****  ****    0 ROOT
