@<TRIPOS>MOLECULE
K2Z
   82    83     1     0     0
SMALL
No Charge or Current Charge


@<TRIPOS>ATOM
      1 CAU         -8.5660    -1.9860    -0.8770 c6         1 K2Z       0.163800
      2 CAS         -8.9180    -3.3610    -0.2220 c6         1 K2Z       0.163800
      3 NBK         -8.7870    -3.3290     1.2670 n3         1 K2Z      -0.717600
      4 CAE         -9.1400    -4.6170     1.9010 c3         1 K2Z       0.153100
      5 CAT         -7.4240    -2.8500     1.6480 c6         1 K2Z       0.163800
      6 CAV         -7.0680    -1.4770     0.9920 c6         1 K2Z       0.163800
      7 NBL         -7.2000    -1.5030    -0.5020 n3         1 K2Z      -0.719600
      8 CAR         -6.8620    -0.2190    -1.1650 c3         1 K2Z       0.171800
      9 CAP         -5.4000     0.2380    -0.9710 c3         1 K2Z      -0.098400
     10 CAQ         -5.0420     1.4640    -1.8330 c3         1 K2Z       0.099000
     11 NAY         -3.6580     1.8930    -1.6160 ns         1 K2Z      -0.491900
     12 CBF         -3.2300     2.6360    -0.5340 c          1 K2Z       0.565100
     13 OAH         -4.0120     3.0970     0.2890 o          1 K2Z      -0.612100
     14 CBM         -1.6960     2.9030    -0.4630 c3         1 K2Z       0.077300
     15 OAI         -1.3950     4.1580     0.2070 oh         1 K2Z      -0.656000
     16 CBJ         -0.9410     1.7260     0.2230 c3         1 K2Z       0.092700
     17 CAO         -1.3900     1.4410     1.6840 c3         1 K2Z      -0.092400
     18 CAA         -0.6900     0.2300     2.3390 c3         1 K2Z      -0.094100
     19 NBA          0.5080     1.9630     0.1610 ns         1 K2Z      -0.490900
     20 C            1.4500     1.0590    -0.2860 c          1 K2Z       0.584100
     21 O            1.1380    -0.0570    -0.6860 o          1 K2Z      -0.609100
     22 CA           2.9220     1.5630    -0.2300 c3         1 K2Z       0.050700
     23 CB           3.1880     2.6340    -1.3280 c3         1 K2Z      -0.085400
     24 CG           4.5550     3.3700    -1.2480 c3         1 K2Z      -0.058700
     25 CD2          4.7910     4.2310    -2.5110 c3         1 K2Z      -0.091100
     26 CD1          4.6940     4.2330     0.0290 c3         1 K2Z      -0.091100
     27 N            3.8490     0.4180    -0.3660 ns         1 K2Z      -0.477900
     28 CBD          4.9970     0.2330     0.3480 c          1 K2Z       0.639100
     29 OAF          5.4230     0.9850     1.2090 o          1 K2Z      -0.551000
     30 OBB          5.5570    -0.9490    -0.0250 os         1 K2Z      -0.453100
     31 CAW          6.7720    -1.3440     0.6320 c3         1 K2Z       0.230900
     32 CBG          7.1950    -2.7000     0.0810 ca         1 K2Z      -0.101300
     33 CAM          7.9780    -2.7800    -1.0870 ca         1 K2Z      -0.084500
     34 CAK          8.3680    -4.0310    -1.5970 ca         1 K2Z      -0.116000
     35 CAJ          7.9760    -5.2110    -0.9420 ca         1 K2Z      -0.098000
     36 CAL          7.1930    -5.1380     0.2230 ca         1 K2Z      -0.116000
     37 CAN          6.8030    -3.8870     0.7330 ca         1 K2Z      -0.084500
     38 HAU         -8.6450    -2.0910    -1.9690 h1         1 K2Z       0.038450
     39 HAUA        -9.3230    -1.2500    -0.5710 h1         1 K2Z       0.038450
     40 HAS         -9.9440    -3.6330    -0.5080 h1         1 K2Z       0.038200
     41 HASA        -8.2530    -4.1290    -0.6430 h1         1 K2Z       0.038200
     42 HAE         -8.4620    -5.4160     1.5720 h1         1 K2Z       0.030700
     43 HAEA        -9.0770    -4.5410     2.9940 h1         1 K2Z       0.030700
     44 HAEB       -10.1670    -4.9080     1.6400 h1         1 K2Z       0.030700
     45 HAT         -7.3490    -2.7470     2.7400 h1         1 K2Z       0.038200
     46 HATA        -6.6670    -3.5880     1.3430 h1         1 K2Z       0.038200
     47 HAV         -7.7270    -0.7050     1.4150 h1         1 K2Z       0.038450
     48 HAVA        -6.0410    -1.2210     1.2870 h1         1 K2Z       0.038450
     49 HAR         -7.0370    -0.3210    -2.2450 h1         1 K2Z       0.033700
     50 HARA        -7.5300     0.5760    -0.8070 h1         1 K2Z       0.033700
     51 HAP         -5.2280     0.4840     0.0830 hc         1 K2Z       0.054200
     52 HAPA        -4.7280    -0.5890    -1.2280 hc         1 K2Z       0.054200
     53 HAQ         -5.1710     1.2180    -2.8950 h1         1 K2Z       0.054700
     54 HAQA        -5.7190     2.2960    -1.5950 h1         1 K2Z       0.054700
     55 HNAY        -2.9500     1.5800    -2.2720 hn         1 K2Z       0.321500
     56 HBM         -1.3440     2.9570    -1.5020 h1         1 K2Z       0.075700
     57 HOAI        -2.1580     4.3440     0.8030 ho         1 K2Z       0.477000
     58 HBJ         -1.1660     0.8240    -0.3630 h1         1 K2Z       0.078700
     59 HAO         -1.2130     2.3280     2.3050 hc         1 K2Z       0.048700
     60 HAOA        -2.4700     1.2540     1.7030 hc         1 K2Z       0.048700
     61 HAA         -0.8310    -0.6740     1.7340 hc         1 K2Z       0.042700
     62 HAAA         0.3860     0.4070     2.4530 hc         1 K2Z       0.042700
     63 HAAB        -1.1080     0.0420     3.3350 hc         1 K2Z       0.042700
     64 HNBA         0.8440     2.8730     0.4550 hn         1 K2Z       0.328500
     65 HA           3.0530     2.0130     0.7620 h1         1 K2Z       0.079700
     66 HB           3.0990     2.1460    -2.3070 hc         1 K2Z       0.056700
     67 HBA          2.3910     3.3890    -1.2940 hc         1 K2Z       0.056700
     68 HG           5.3510     2.6150    -1.2280 hc         1 K2Z       0.049700
     69 HD2          4.0290     5.0140    -2.5980 hc         1 K2Z       0.035700
     70 HD2A         5.7760     4.7120    -2.4740 hc         1 K2Z       0.035700
     71 HD2B         4.7540     3.6120    -3.4160 hc         1 K2Z       0.035700
     72 HD1          4.6250     3.6230     0.9360 hc         1 K2Z       0.035700
     73 HD1A         5.6660     4.7410     0.0480 hc         1 K2Z       0.035700
     74 HD1B         3.9090     4.9980     0.0710 hc         1 K2Z       0.035700
     75 HN           3.6050    -0.3290    -1.0060 hn         1 K2Z       0.335500
     76 HAW          7.5680    -0.6090     0.4540 h1         1 K2Z       0.056700
     77 HAWA         6.6210    -1.4200     1.7180 h1         1 K2Z       0.056700
     78 HAM          8.2830    -1.8710    -1.6030 ha         1 K2Z       0.115000
     79 HAK          8.9720    -4.0860    -2.5000 ha         1 K2Z       0.114000
     80 HAJ          8.2770    -6.1790    -1.3360 ha         1 K2Z       0.113000
     81 HAL          6.8870    -6.0510     0.7300 ha         1 K2Z       0.114000
     82 HAN          6.1940    -3.8400     1.6330 ha         1 K2Z       0.115000
@<TRIPOS>BOND
     1     1     2 1   
     2     1     7 1   
     3     1    38 1   
     4     1    39 1   
     5     2     3 1   
     6     2    40 1   
     7     2    41 1   
     8     3     4 1   
     9     3     5 1   
    10     4    42 1   
    11     4    43 1   
    12     4    44 1   
    13     5     6 1   
    14     5    45 1   
    15     5    46 1   
    16     6     7 1   
    17     6    47 1   
    18     6    48 1   
    19     7     8 1   
    20     8     9 1   
    21     8    49 1   
    22     8    50 1   
    23     9    10 1   
    24     9    51 1   
    25     9    52 1   
    26    10    11 1   
    27    10    53 1   
    28    10    54 1   
    29    11    12 1   
    30    11    55 1   
    31    12    13 2   
    32    12    14 1   
    33    14    15 1   
    34    14    16 1   
    35    14    56 1   
    36    15    57 1   
    37    16    17 1   
    38    16    19 1   
    39    16    58 1   
    40    17    18 1   
    41    17    59 1   
    42    17    60 1   
    43    18    61 1   
    44    18    62 1   
    45    18    63 1   
    46    19    20 1   
    47    19    64 1   
    48    20    21 2   
    49    20    22 1   
    50    22    23 1   
    51    22    27 1   
    52    22    65 1   
    53    23    24 1   
    54    23    66 1   
    55    23    67 1   
    56    24    25 1   
    57    24    26 1   
    58    24    68 1   
    59    25    69 1   
    60    25    70 1   
    61    25    71 1   
    62    26    72 1   
    63    26    73 1   
    64    26    74 1   
    65    27    28 1   
    66    27    75 1   
    67    28    29 2   
    68    28    30 1   
    69    30    31 1   
    70    31    32 1   
    71    31    76 1   
    72    31    77 1   
    73    32    33 ar  
    74    32    37 ar  
    75    33    34 ar  
    76    33    78 1   
    77    34    35 ar  
    78    34    79 1   
    79    35    36 ar  
    80    35    80 1   
    81    36    37 ar  
    82    36    81 1   
    83    37    82 1   
@<TRIPOS>SUBSTRUCTURE
     1 K2Z         1 TEMP              0 ****  ****    0 ROOT
