@<TRIPOS>MOLECULE
K2Z
   82    83     1     0     0
SMALL
bcc


@<TRIPOS>ATOM
      1 CAU         -8.5600    -1.4910    -0.0670 c6         1 K2Z       0.163800
      2 CAS         -9.0390    -2.8080    -0.6450 c6         1 K2Z       0.163800
      3 NBK         -8.3560    -3.9200    -0.0170 n3         1 K2Z      -0.717600
      4 CAE         -8.8300    -5.1890    -0.5160 c3         1 K2Z       0.153100
      5 CAT         -6.9240    -3.7800    -0.1770 c6         1 K2Z       0.163800
      6 CAV         -6.4410    -2.4610     0.3960 c6         1 K2Z       0.163800
      7 NBL         -7.1260    -1.3440    -0.2300 n3         1 K2Z      -0.719600
      8 CAR         -6.6760    -0.0600     0.2710 c3         1 K2Z       0.171800
      9 CAP         -5.2390     0.2720    -0.1090 c3         1 K2Z      -0.098400
     10 CAQ         -4.8990     1.7020     0.2800 c3         1 K2Z       0.099000
     11 NAY         -3.5180     2.0030    -0.0460 ns         1 K2Z      -0.558900
     12 CBF         -2.8610     3.0490     0.4550 c          1 K2Z       0.632100
     13 OAH         -3.3500     3.8560     1.2370 o          1 K2Z      -0.612100
     14 CBM         -1.3990     3.1870     0.0350 c3         1 K2Z       0.054100
     15 OAI         -0.9240     4.4510     0.3920 oh         1 K2Z      -0.593800
     16 CBJ         -0.5430     2.0660     0.6590 c3         1 K2Z       0.092700
     17 CAO         -0.6250     2.0230     2.1860 c3         1 K2Z      -0.092400
     18 CAA          0.2190     0.9110     2.7920 c3         1 K2Z      -0.094100
     19 NBA          0.8210     2.2410     0.2110 ns         1 K2Z      -0.557900
     20 C            1.5550     1.2930    -0.3890 c          1 K2Z       0.651100
     21 O            1.1650     0.1600    -0.6190 o          1 K2Z      -0.609100
     22 CA           2.9360     1.7640    -0.8520 c3         1 K2Z       0.050700
     23 CB           2.8300     2.2400    -2.3020 c3         1 K2Z      -0.085400
     24 CG           4.1330     2.7610    -2.9130 c3         1 K2Z      -0.058700
     25 CD2          3.8740     3.1930    -4.3530 c3         1 K2Z      -0.091100
     26 CD1          4.7350     3.9050    -2.1050 c3         1 K2Z      -0.091100
     27 N            3.8970     0.6990    -0.7520 ns         1 K2Z      -0.544900
     28 CBD          4.2390     0.1980     0.4510 c          1 K2Z       0.755100
     29 OAF          3.8990     0.6750     1.5150 o          1 K2Z      -0.600000
     30 OBB          5.0180    -0.8790     0.3250 os         1 K2Z      -0.429900
     31 CAW          5.4890    -1.4810     1.5370 c3         1 K2Z       0.207700
     32 CBG          6.3590    -2.6360     1.1470 ca         1 K2Z      -0.101300
     33 CAM          7.6460    -2.4150     0.6620 ca         1 K2Z      -0.102500
     34 CAK          8.4490    -3.4810     0.2840 ca         1 K2Z      -0.134000
     35 CAJ          7.9740    -4.7830     0.3910 ca         1 K2Z      -0.116000
     36 CAL          6.6930    -5.0120     0.8750 ca         1 K2Z      -0.134000
     37 CAN          5.8900    -3.9420     1.2480 ca         1 K2Z      -0.102500
     38 HAU         -9.0640    -0.6710    -0.5860 h1         1 K2Z       0.038450
     39 HAUA        -8.8580    -1.4330     0.9940 h1         1 K2Z       0.038450
     40 HAS        -10.1140    -2.9050    -0.4740 h1         1 K2Z       0.038200
     41 HASA        -8.8860    -2.8020    -1.7390 h1         1 K2Z       0.038200
     42 HAE         -8.6520    -5.3250    -1.5940 h1         1 K2Z       0.030700
     43 HAEA        -8.3360    -6.0080     0.0090 h1         1 K2Z       0.030700
     44 HAEB        -9.9040    -5.2810    -0.3430 h1         1 K2Z       0.030700
     45 HAT         -6.4220    -4.5990     0.3450 h1         1 K2Z       0.038200
     46 HATA        -6.6260    -3.8440    -1.2390 h1         1 K2Z       0.038200
     47 HAV         -6.5880    -2.4610     1.4900 h1         1 K2Z       0.038450
     48 HAVA        -5.3680    -2.3830     0.2180 h1         1 K2Z       0.038450
     49 HAR         -7.3320     0.7070    -0.1540 h1         1 K2Z       0.033700
     50 HARA        -6.7880     0.0100     1.3670 h1         1 K2Z       0.033700
     51 HAP         -4.5380    -0.4030     0.3870 hc         1 K2Z       0.054200
     52 HAPA        -5.1150     0.1370    -1.1880 hc         1 K2Z       0.054200
     53 HAQ         -5.5690     2.4000    -0.2310 h1         1 K2Z       0.054700
     54 HAQA        -5.0450     1.8430     1.3520 h1         1 K2Z       0.054700
     55 HNAY        -3.0710     1.4460    -0.7580 hn         1 K2Z       0.321500
     56 HBM         -1.3310     3.0840    -1.0550 h1         1 K2Z       0.075700
     57 HOAI        -1.5090     4.7860     1.0870 ho         1 K2Z       0.438000
     58 HBJ         -0.8880     1.1090     0.2610 h1         1 K2Z       0.078700
     59 HAO         -0.3200     2.9880     2.6000 hc         1 K2Z       0.048700
     60 HAOA        -1.6670     1.8740     2.4800 hc         1 K2Z       0.048700
     61 HAA         -0.0760    -0.0650     2.4050 hc         1 K2Z       0.042700
     62 HAAA         1.2800     1.0430     2.5780 hc         1 K2Z       0.042700
     63 HAAB         0.1000     0.8900     3.8760 hc         1 K2Z       0.042700
     64 HNBA         1.2560     3.1260     0.4220 hn         1 K2Z       0.328500
     65 HA           3.2650     2.6000    -0.2280 h1         1 K2Z       0.079700
     66 HB           2.4450     1.4180    -2.9140 hc         1 K2Z       0.056700
     67 HBA          2.0780     3.0330    -2.3420 hc         1 K2Z       0.056700
     68 HG           4.8610     1.9430    -2.9380 hc         1 K2Z       0.049700
     69 HD2          3.1700     4.0280    -4.3910 hc         1 K2Z       0.035700
     70 HD2A         4.7950     3.5150    -4.8400 hc         1 K2Z       0.035700
     71 HD2B         3.4540     2.3770    -4.9450 hc         1 K2Z       0.035700
     72 HD1          5.0280     3.5920    -1.1020 hc         1 K2Z       0.035700
     73 HD1A         5.6280     4.2940    -2.5950 hc         1 K2Z       0.035700
     74 HD1B         4.0240     4.7300    -2.0050 hc         1 K2Z       0.035700
     75 HN           4.1070     0.1600    -1.5780 hn         1 K2Z       0.335500
     76 HAW          6.0540    -0.7500     2.1200 h1         1 K2Z       0.056700
     77 HAWA         4.6460    -1.8190     2.1430 h1         1 K2Z       0.056700
     78 HAM          8.0250    -1.4030     0.5820 ha         1 K2Z       0.133000
     79 HAK          9.4480    -3.2960    -0.0900 ha         1 K2Z       0.132000
     80 HAJ          8.6020    -5.6160     0.1020 ha         1 K2Z       0.131000
     81 HAL          6.3190    -6.0240     0.9640 ha         1 K2Z       0.132000
     82 HAN          4.8900    -4.1260     1.6240 ha         1 K2Z       0.133000
@<TRIPOS>BOND
     1     1     2 1   
     2     1     7 1   
     3     1    38 1   
     4     1    39 1   
     5     2     3 1   
     6     2    40 1   
     7     2    41 1   
     8     3     4 1   
     9     3     5 1   
    10     4    42 1   
    11     4    43 1   
    12     4    44 1   
    13     5     6 1   
    14     5    45 1   
    15     5    46 1   
    16     6     7 1   
    17     6    47 1   
    18     6    48 1   
    19     7     8 1   
    20     8     9 1   
    21     8    49 1   
    22     8    50 1   
    23     9    10 1   
    24     9    51 1   
    25     9    52 1   
    26    10    11 1   
    27    10    53 1   
    28    10    54 1   
    29    11    12 1   
    30    11    55 1   
    31    12    13 2   
    32    12    14 1   
    33    14    15 1   
    34    14    16 1   
    35    14    56 1   
    36    15    57 1   
    37    16    17 1   
    38    16    19 1   
    39    16    58 1   
    40    17    18 1   
    41    17    59 1   
    42    17    60 1   
    43    18    61 1   
    44    18    62 1   
    45    18    63 1   
    46    19    20 1   
    47    19    64 1   
    48    20    21 2   
    49    20    22 1   
    50    22    23 1   
    51    22    27 1   
    52    22    65 1   
    53    23    24 1   
    54    23    66 1   
    55    23    67 1   
    56    24    25 1   
    57    24    26 1   
    58    24    68 1   
    59    25    69 1   
    60    25    70 1   
    61    25    71 1   
    62    26    72 1   
    63    26    73 1   
    64    26    74 1   
    65    27    28 1   
    66    27    75 1   
    67    28    29 2   
    68    28    30 1   
    69    30    31 1   
    70    31    32 1   
    71    31    76 1   
    72    31    77 1   
    73    32    33 ar  
    74    32    37 ar  
    75    33    34 ar  
    76    33    78 1   
    77    34    35 ar  
    78    34    79 1   
    79    35    36 ar  
    80    35    80 1   
    81    36    37 ar  
    82    36    81 1   
    83    37    82 1   
@<TRIPOS>SUBSTRUCTURE
     1 K2Z         1 TEMP              0 ****  ****    0 ROOT
