@<TRIPOS>MOLECULE
K30
   61    64     1     0     0
SMALL
bcc


@<TRIPOS>ATOM
      1 C28          7.5340    -1.4560    -0.1720 c3         1 K30       0.155100
      2 C22          1.5400    -0.9260     1.6070 c3         1 K30       0.090300
      3 C18         -0.3060     4.8050     1.8840 ca         1 K30      -0.120000
      4 C17         -0.1800     4.9820     0.5140 ca         1 K30      -0.135500
      5 C19         -0.6540     3.5540     2.3800 ca         1 K30      -0.135500
      6 C16         -0.3980     3.9200    -0.3570 ca         1 K30      -0.099000
      7 C20         -0.8720     2.4990     1.5080 ca         1 K30      -0.099000
      8 C7          -5.6630    -3.0230     0.2140 ca         1 K30      -0.141000
      9 C6          -4.6250    -3.0800     1.1320 ca         1 K30      -0.144000
     10 C9          -4.4810    -1.2890    -0.9850 ca         1 K30      -0.138000
     11 C27          4.3290     0.2090     0.8270 c6         1 K30      -0.093400
     12 C26          5.7510     0.0730     0.3020 c6         1 K30       0.165800
     13 C2          -2.3440     0.8540    -0.5120 c2         1 K30      -0.118200
     14 C24          5.2790    -2.0740    -0.6550 c6         1 K30       0.138800
     15 C           -0.8490    -0.9080    -0.2090 c5         1 K30       0.152200
     16 C14         -0.8750     1.7470    -2.2700 c3         1 K30       0.128400
     17 C15         -0.7450     2.6650     0.1290 ca         1 K30      -0.075300
     18 C8          -5.5690    -2.1210    -0.8280 ca         1 K30       0.121900
     19 C5          -3.5380    -2.2450     0.9780 ca         1 K30       0.127900
     20 C4          -3.4280    -1.3380    -0.0700 ca         1 K30      -0.045800
     21 C12          3.3750    -0.5900    -0.0570 c6         1 K30       0.086700
     22 C3          -2.2750    -0.4430    -0.2330 ce         1 K30      -0.109400
     23 C23          3.8400    -2.0310    -0.1850 c6         1 K30       0.174600
     24 C10          1.2420     0.4670    -0.4030 c          1 K30       0.801100
     25 C1          -0.9860     1.4550    -0.7640 c5         1 K30       0.217900
     26 N25          6.1500    -1.3190     0.2190 n3         1 K30      -0.710600
     27 N           -0.1170     0.3450    -0.3530 n          1 K30      -0.504800
     28 N11          1.9670    -0.4720     0.2910 n          1 K30      -0.486800
     29 O            1.7790     1.3660    -1.0390 o          1 K30      -0.634100
     30 F           -2.5610    -2.2970     1.8970 f          1 K30      -0.139900
     31 F29          3.7520    -2.6960     1.0420 f          1 K30      -0.243300
     32 H28          7.7440    -1.0580    -1.1770 h1         1 K30       0.032033
     33 H28A         8.1760    -0.9290     0.5350 h1         1 K30       0.032033
     34 H28B         7.8250    -2.5080    -0.1650 h1         1 K30       0.032033
     35 H22          2.3520    -0.8200     2.3230 h1         1 K30       0.043700
     36 H22A         0.7220    -0.3080     1.9720 h1         1 K30       0.043700
     37 H22B         1.2210    -1.9680     1.6190 h1         1 K30       0.043700
     38 H18         -0.1350     5.6320     2.5600 ha         1 K30       0.129000
     39 H17          0.0930     5.9500     0.1150 ha         1 K30       0.129000
     40 H19         -0.7550     3.4000     3.4460 ha         1 K30       0.129000
     41 H16         -0.2880     4.0920    -1.4180 ha         1 K30       0.132500
     42 H20         -1.1430     1.5280     1.9070 ha         1 K30       0.132500
     43 H7          -6.5240    -3.6700     0.3120 ha         1 K30       0.156000
     44 H6          -4.6670    -3.7650     1.9680 ha         1 K30       0.156000
     45 H9          -4.4330    -0.6090    -1.8260 ha         1 K30       0.160000
     46 H27          4.2930    -0.1300     1.8640 hc         1 K30       0.063200
     47 H27A         4.0370     1.2600     0.8180 hc         1 K30       0.063200
     48 H26          5.8250     0.5760    -0.6800 h1         1 K30       0.035700
     49 H26A         6.4390     0.5930     0.9720 h1         1 K30       0.035700
     50 H24          5.6170    -3.1130    -0.6900 h1         1 K30       0.042700
     51 H24A         5.3030    -1.7030    -1.6960 h1         1 K30       0.042700
     52 H           -0.6070    -1.4320     0.7110 h1         1 K30       0.061200
     53 HA          -0.6470    -1.6000    -1.0360 h1         1 K30       0.061200
     54 H14          0.0710     2.2410    -2.4960 h1         1 K30       0.044200
     55 H14A        -0.8750     0.7820    -2.7950 h1         1 K30       0.044200
     56 H12          3.4730    -0.1920    -1.0700 h1         1 K30       0.077700
     57 H23          3.2010    -2.5690    -0.8910 h1         1 K30       0.057700
     58 HO21        -1.8110     2.8930    -3.5200 ho         1 K30       0.407000
     59 H2          -3.2510     1.4350    -0.5850 ha         1 K30       0.166000
     60 O21         -1.9810     2.5360    -2.6430 oh         1 K30      -0.601800
     61 F13         -6.5640    -2.0580    -1.7260 f          1 K30      -0.137900
@<TRIPOS>BOND
     1     1    26 1   
     2     1    32 1   
     3     1    33 1   
     4     1    34 1   
     5     2    28 1   
     6     2    35 1   
     7     2    36 1   
     8     2    37 1   
     9     3     4 ar  
    10     3     5 ar  
    11     3    38 1   
    12     4     6 ar  
    13     4    39 1   
    14     5     7 ar  
    15     5    40 1   
    16     6    17 ar  
    17     6    41 1   
    18     7    17 ar  
    19     7    42 1   
    20     8     9 ar  
    21     8    18 ar  
    22     8    43 1   
    23     9    19 ar  
    24     9    44 1   
    25    10    18 ar  
    26    10    20 ar  
    27    10    45 1   
    28    11    12 1   
    29    11    21 1   
    30    11    46 1   
    31    11    47 1   
    32    12    26 1   
    33    12    48 1   
    34    12    49 1   
    35    13    22 2   
    36    13    25 1   
    37    13    59 1   
    38    14    23 1   
    39    14    26 1   
    40    14    50 1   
    41    14    51 1   
    42    15    22 1   
    43    15    27 1   
    44    15    52 1   
    45    15    53 1   
    46    16    25 1   
    47    16    54 1   
    48    16    55 1   
    49    16    60 1   
    50    17    25 1   
    51    18    61 1   
    52    19    20 ar  
    53    19    30 1   
    54    20    22 1   
    55    21    23 1   
    56    21    28 1   
    57    21    56 1   
    58    23    31 1   
    59    23    57 1   
    60    24    27 1   
    61    24    28 1   
    62    24    29 2   
    63    25    27 1   
    64    58    60 1   
@<TRIPOS>SUBSTRUCTURE
     1 K30         1 TEMP              0 ****  ****    0 ROOT
