@<TRIPOS>MOLECULE
K30
   61    64     1     0     0
SMALL
No Charge or Current Charge


@<TRIPOS>ATOM
      1 C28          7.8460    -1.3280    -0.1790 c3         1 K30       0.155100
      2 C22          1.6160    -1.2850     1.4620 c3         1 K30       0.090300
      3 C18         -0.5100     4.7830     1.9090 ca         1 K30      -0.102000
      4 C17         -0.2380     4.9610     0.5440 ca         1 K30      -0.117500
      5 C19         -0.9550     3.5360     2.3700 ca         1 K30      -0.117500
      6 C16         -0.4110     3.8970    -0.3580 ca         1 K30      -0.081000
      7 C20         -1.1290     2.4720     1.4690 ca         1 K30      -0.081000
      8 C7          -5.8790    -2.8160     0.4050 ca         1 K30      -0.123000
      9 C6          -4.8950    -2.7450     1.4080 ca         1 K30      -0.126000
     10 C9          -4.5650    -1.3030    -0.9820 ca         1 K30      -0.120000
     11 C27          4.4530     0.0480     0.9780 c6         1 K30      -0.093400
     12 C26          5.9230     0.0630     0.4930 c6         1 K30       0.165800
     13 C2          -2.4580     0.8840    -0.6500 c2         1 K30      -0.168200
     14 C24          5.5550    -1.9890    -0.8420 c6         1 K30       0.138800
     15 C           -0.9600    -0.8800    -0.0210 c5         1 K30       0.152200
     16 C14         -0.8810     1.7020    -2.4170 c3         1 K30       0.151600
     17 C15         -0.8640     2.6320     0.0870 ca         1 K30      -0.075300
     18 C8          -5.7090    -2.0930    -0.7850 ca         1 K30       0.157000
     19 C5          -3.7480    -1.9560     1.2150 ca         1 K30       0.163000
     20 C4          -3.5690    -1.2280     0.0140 ca         1 K30      -0.045800
     21 C12          3.5350    -0.6150    -0.0830 c6         1 K30       0.086700
     22 C3          -2.3640    -0.3820    -0.2290 ce         1 K30      -0.109400
     23 C23          4.0520    -2.0450    -0.4410 c6         1 K30       0.193300
     24 C10          1.2470     0.4390    -0.3550 c          1 K30       0.667100
     25 C1          -1.0560     1.4380    -0.8780 c5         1 K30       0.217900
     26 N25          6.4120    -1.3080     0.1810 n3         1 K30      -0.710600
     27 N           -0.1710     0.3330    -0.3670 n          1 K30      -0.437800
     28 N11          2.0740    -0.5380     0.2660 n          1 K30      -0.419800
     29 O            1.7780     1.3810    -0.9260 o          1 K30      -0.634100
     30 F           -2.8340    -1.8870     2.2080 f          1 K30      -0.175000
     31 F29          3.9230    -2.9170     0.6660 f          1 K30      -0.262000
     32 H28          8.0270    -0.7610    -1.1020 h1         1 K30       0.032033
     33 H28A         8.4530    -0.8860     0.6220 h1         1 K30       0.032033
     34 H28B         8.1920    -2.3590    -0.3350 h1         1 K30       0.032033
     35 H22          2.4580    -1.5390     2.1160 h1         1 K30       0.043700
     36 H22A         0.9270    -0.6650     2.0500 h1         1 K30       0.043700
     37 H22B         1.1240    -2.2170     1.1570 h1         1 K30       0.043700
     38 H18         -0.3750     5.6070     2.6060 ha         1 K30       0.111000
     39 H17          0.1110     5.9260     0.1830 ha         1 K30       0.111000
     40 H19         -1.1650     3.3910     3.4280 ha         1 K30       0.111000
     41 H16         -0.1840     4.0690    -1.4060 ha         1 K30       0.114500
     42 H20         -1.4700     1.5120     1.8500 ha         1 K30       0.114500
     43 H7          -6.7690    -3.4240     0.5500 ha         1 K30       0.138000
     44 H6          -5.0210    -3.2960     2.3370 ha         1 K30       0.138000
     45 H9          -4.4500    -0.7560    -1.9140 ha         1 K30       0.142000
     46 H27          4.3960    -0.4840     1.9360 hc         1 K30       0.063200
     47 H27A         4.1200     1.0770     1.1670 hc         1 K30       0.063200
     48 H26          6.0010     0.7070    -0.3960 h1         1 K30       0.035700
     49 H26A         6.5460     0.5190     1.2770 h1         1 K30       0.035700
     50 H24          5.9090    -3.0170    -1.0100 h1         1 K30       0.042700
     51 H24A         5.6370    -1.4660    -1.8070 h1         1 K30       0.042700
     52 H           -0.8330    -1.1830     1.0210 h1         1 K30       0.061200
     53 HA          -0.7150    -1.7260    -0.6760 h1         1 K30       0.061200
     54 H14          0.1120     2.1250    -2.6110 h1         1 K30       0.044200
     55 H14A        -0.9210     0.7330    -2.9320 h1         1 K30       0.044200
     56 H12          3.6830    -0.0410    -1.0090 h1         1 K30       0.077700
     57 H23          3.4580    -2.4680    -1.2630 h1         1 K30       0.057700
     58 HO21        -1.7430     2.6520    -3.9140 ho         1 K30       0.446000
     59 H2          -3.3860     1.4180    -0.8520 ha         1 K30       0.216000
     60 O21         -1.9010     2.5760    -2.9460 oh         1 K30      -0.664000
     61 F13         -6.6530    -2.1580    -1.7490 f          1 K30      -0.173000
@<TRIPOS>BOND
     1     1    26 1   
     2     1    32 1   
     3     1    33 1   
     4     1    34 1   
     5     2    28 1   
     6     2    35 1   
     7     2    36 1   
     8     2    37 1   
     9     3     4 ar  
    10     3     5 ar  
    11     3    38 1   
    12     4     6 ar  
    13     4    39 1   
    14     5     7 ar  
    15     5    40 1   
    16     6    17 ar  
    17     6    41 1   
    18     7    17 ar  
    19     7    42 1   
    20     8     9 ar  
    21     8    18 ar  
    22     8    43 1   
    23     9    19 ar  
    24     9    44 1   
    25    10    18 ar  
    26    10    20 ar  
    27    10    45 1   
    28    11    12 1   
    29    11    21 1   
    30    11    46 1   
    31    11    47 1   
    32    12    26 1   
    33    12    48 1   
    34    12    49 1   
    35    13    22 2   
    36    13    25 1   
    37    13    59 1   
    38    14    23 1   
    39    14    26 1   
    40    14    50 1   
    41    14    51 1   
    42    15    22 1   
    43    15    27 1   
    44    15    52 1   
    45    15    53 1   
    46    16    25 1   
    47    16    54 1   
    48    16    55 1   
    49    16    60 1   
    50    17    25 1   
    51    18    61 1   
    52    19    20 ar  
    53    19    30 1   
    54    20    22 1   
    55    21    23 1   
    56    21    28 1   
    57    21    56 1   
    58    23    31 1   
    59    23    57 1   
    60    24    27 1   
    61    24    28 1   
    62    24    29 2   
    63    25    27 1   
    64    58    60 1   
@<TRIPOS>SUBSTRUCTURE
     1 K30         1 TEMP              0 ****  ****    0 ROOT
