@<TRIPOS>MOLECULE
K31
   27    28     1     0     0
SMALL
No Charge or Current Charge


@<TRIPOS>ATOM
      1 N1          -2.8960     0.7370    -0.0530 na         1 K31      -0.008200
      2 C4          -0.8330    -0.0040    -0.1550 cc         1 K31      -0.159000
      3 C5           0.6420     0.0370    -0.2260 ca         1 K31      -0.073000
      4 C6           1.2460     0.6140    -1.3660 ca         1 K31      -0.060000
      5 C7           2.6430     0.6580    -1.5020 ca         1 K31      -0.164000
      6 C8           3.4640     0.1320    -0.4970 ca         1 K31      -0.067000
      7 C10          1.4870    -0.4770     0.7960 ca         1 K31       0.315000
      8 N           -2.9840    -0.5930     0.3520 nd         1 K31      -0.522800
      9 C1          -1.7320    -1.0000     0.3000 cc         1 K31       0.257300
     10 C2          -1.5830     1.1260    -0.3470 cd         1 K31      -0.116300
     11 C3          -1.1950     2.5420    -0.7010 c3         1 K31      -0.033800
     12 C9           2.8830    -0.4290     0.6510 ca         1 K31      -0.188000
     13 N2           0.9910    -0.9490     1.9840 nv         1 K31      -1.085000
     14 H1          -3.7210     1.3330    -0.0990 hn         1 K31       0.369000
     15 H2           0.6270     1.0030    -2.1710 ha         1 K31       0.110000
     16 H3           3.0880     1.0960    -2.3930 ha         1 K31       0.113000
     17 H4           4.5470     0.1660    -0.6010 ha         1 K31       0.108000
     18 H5          -0.3810    -2.6810     0.1500 hc         1 K31       0.046033
     19 H6          -1.2980    -2.6050     1.6730 hc         1 K31       0.046033
     20 H7          -2.0920    -3.1190     0.1770 hc         1 K31       0.046033
     21 H8          -1.9380     3.2620    -0.3380 hc         1 K31       0.054033
     22 H9          -0.2310     2.8160    -0.2550 hc         1 K31       0.054033
     23 H10         -1.1140     2.6700    -1.7870 hc         1 K31       0.054033
     24 H11          3.5260    -0.8140     1.4370 ha         1 K31       0.110000
     25 H12          0.0110    -0.7850     2.1970 hn         1 K31       0.457000
     26 H13          1.6210    -1.0900     2.7700 hn         1 K31       0.457000
     27 C           -1.3510    -2.4270     0.5930 c3         1 K31      -0.118400
@<TRIPOS>BOND
     1     1     8 1   
     2     1    10 1   
     3     1    14 1   
     4     2     3 1   
     5     2     9 1   
     6     2    10 2   
     7     3     4 ar  
     8     3     7 ar  
     9     4     5 ar  
    10     4    15 1   
    11     5     6 ar  
    12     5    16 1   
    13     6    12 ar  
    14     6    17 1   
    15     7    12 ar  
    16     7    13 1   
    17     8     9 2   
    18     9    27 1   
    19    10    11 1   
    20    11    21 1   
    21    11    22 1   
    22    11    23 1   
    23    12    24 1   
    24    13    25 1   
    25    13    26 1   
    26    18    27 1   
    27    19    27 1   
    28    20    27 1   
@<TRIPOS>SUBSTRUCTURE
     1 K31         1 TEMP              0 ****  ****    0 ROOT
