@<TRIPOS>MOLECULE
K31
   27    28     1     0     0
SMALL
bcc


@<TRIPOS>ATOM
      1 N1          -2.8630     0.6810    -0.1060 na         1 K31      -0.008600
      2 C4          -0.7730     0.0840    -0.1200 cc         1 K31      -0.224300
      3 C5           0.6950     0.0680    -0.2030 ca         1 K31      -0.073000
      4 C6           1.3350     0.2880    -1.4200 ca         1 K31      -0.078000
      5 C7           2.7180     0.2640    -1.5370 ca         1 K31      -0.182000
      6 C8           3.4780     0.0020    -0.4050 ca         1 K31      -0.085000
      7 C10          1.4740    -0.1700     0.9460 ca         1 K31       0.176600
      8 N           -2.8990    -0.6390     0.0720 nd         1 K31      -0.522800
      9 C1          -1.6370    -1.0230     0.0680 cc         1 K31       0.322600
     10 C2          -1.6170     1.1730    -0.2270 cd         1 K31      -0.065600
     11 C3          -1.3280     2.6180    -0.4180 c3         1 K31      -0.033800
     12 C9           2.8690    -0.2160     0.8200 ca         1 K31      -0.206000
     13 N2           0.8910    -0.2990     2.1860 nv         1 K31      -0.836200
     14 H1          -3.7240     1.2020    -0.1390 hn         1 K31       0.318700
     15 H2           0.7250     0.4760    -2.2960 ha         1 K31       0.128000
     16 H3           3.1910     0.4370    -2.4940 ha         1 K31       0.131000
     17 H4           4.5590    -0.0350    -0.4700 ha         1 K31       0.126000
     18 H5          -0.7540    -2.8240    -0.6840 hc         1 K31       0.046033
     19 H6          -0.5670    -2.6070     1.0460 hc         1 K31       0.046033
     20 H7          -2.1340    -3.0760     0.3830 hc         1 K31       0.046033
     21 H8          -1.6050     3.2020     0.4610 hc         1 K31       0.054033
     22 H9          -0.2660     2.7670    -0.5990 hc         1 K31       0.054033
     23 H10         -1.8750     3.0260    -1.2690 hc         1 K31       0.054033
     24 H11          3.4740    -0.4080     1.6980 ha         1 K31       0.128000
     25 H12         -0.0960    -0.4950     2.2070 hn         1 K31       0.401800
     26 H13          1.4090    -0.8210     2.8730 hn         1 K31       0.401800
     27 C           -1.2550    -2.4560     0.2130 c3         1 K31      -0.118400
@<TRIPOS>BOND
     1     1     8 1   
     2     1    10 1   
     3     1    14 1   
     4     2     3 1   
     5     2     9 1   
     6     2    10 2   
     7     3     4 ar  
     8     3     7 ar  
     9     4     5 ar  
    10     4    15 1   
    11     5     6 ar  
    12     5    16 1   
    13     6    12 ar  
    14     6    17 1   
    15     7    12 ar  
    16     7    13 1   
    17     8     9 2   
    18     9    27 1   
    19    10    11 1   
    20    11    21 1   
    21    11    22 1   
    22    11    23 1   
    23    12    24 1   
    24    13    25 1   
    25    13    26 1   
    26    18    27 1   
    27    19    27 1   
    28    20    27 1   
@<TRIPOS>SUBSTRUCTURE
     1 K31         1 TEMP              0 ****  ****    0 ROOT
