@<TRIPOS>MOLECULE
K32
   16    17     1     0     0
SMALL
abcg2


@<TRIPOS>ATOM
      1 BR1          3.6590    -3.3310    -0.9500 br         1 K32      -0.037100
      2 C5           2.6780    -2.1130     0.0680 ca         1 K32      -0.011900
      3 C2           1.5500    -1.4430    -0.4200 ca         1 K32       0.012100
      4 BR2          0.9880    -1.7690    -2.1740 br         1 K32      -0.023100
      5 C7           3.0810    -1.8610     1.3620 ca         1 K32       0.038600
      6 N14          4.1180    -2.3450     2.1100 ns         1 K32      -0.495100
      7 C13          4.1130    -1.7880     3.3700 c          1 K32       0.598000
      8 O10          4.8880    -2.0020     4.2740 o          1 K32      -0.531000
      9 N6           3.0310    -0.9350     3.3780 ns         1 K32      -0.495100
     10 C8           2.3860    -0.9580     2.1720 ca         1 K32       0.038600
     11 C4           1.2720    -0.2930     1.7040 ca         1 K32      -0.011900
     12 BR3          0.3960     0.8930     2.8490 br         1 K32      -0.037100
     13 C3           0.8520    -0.5410     0.3920 ca         1 K32       0.012100
     14 BR4         -0.6560     0.3510    -0.2620 br         1 K32      -0.023100
     15 H14          4.8080    -3.0180     1.8110 hn         1 K32       0.483000
     16 H6           2.7790    -0.3780     4.1810 hn         1 K32       0.483000
@<TRIPOS>BOND
     1     1     2 1   
     2     2     3 ar  
     3     2     5 ar  
     4     3     4 1   
     5     3    13 ar  
     6     5     6 1   
     7     5    10 ar  
     8     6     7 1   
     9     6    15 1   
    10     7     8 2   
    11     7     9 1   
    12     9    10 1   
    13     9    16 1   
    14    10    11 ar  
    15    11    12 1   
    16    11    13 ar  
    17    13    14 1   
@<TRIPOS>SUBSTRUCTURE
     1 K32         1 TEMP              0 ****  ****    0 ROOT
