@<TRIPOS>MOLECULE
K32
   16    17     1     0     0
SMALL
No Charge or Current Charge


@<TRIPOS>ATOM
      1 Br1          3.6830    -3.3760    -1.0140 br         1 K32      -0.037100
      2 C5           2.6850    -2.1270     0.0490 ca         1 K32      -0.011900
      3 C2           1.5410    -1.4480    -0.4460 ca         1 K32       0.012100
      4 Br2          0.9520    -1.7780    -2.2490 br         1 K32      -0.023100
      5 C7           3.0730    -1.8540     1.3630 ca         1 K32       0.038600
      6 N14          4.1290    -2.3320     2.1590 ns         1 K32      -0.495100
      7 C13          4.1540    -1.7980     3.4180 c          1 K32       0.598000
      8 O10          4.9340    -2.0120     4.3250 o          1 K32      -0.531000
      9 N6           3.0720    -0.9630     3.3900 ns         1 K32      -0.495100
     10 C8           2.3870    -0.9650     2.1630 ca         1 K32       0.038600
     11 C4           1.2570    -0.2770     1.7130 ca         1 K32      -0.011900
     12 Br3          0.3450     0.9480     2.8750 br         1 K32      -0.037100
     13 C3           0.8300    -0.5270     0.3820 ca         1 K32       0.012100
     14 Br4         -0.7200     0.3870    -0.3020 br         1 K32      -0.023100
     15 H14          4.8180    -3.0090     1.8460 hn         1 K32       0.483000
     16 H6           2.8040    -0.4000     4.1920 hn         1 K32       0.483000
@<TRIPOS>BOND
     1     1     2 1   
     2     2     3 ar  
     3     2     5 ar  
     4     3     4 1   
     5     3    13 ar  
     6     5     6 1   
     7     5    10 ar  
     8     6     7 1   
     9     6    15 1   
    10     7     8 2   
    11     7     9 1   
    12     9    10 1   
    13     9    16 1   
    14    10    11 ar  
    15    11    12 1   
    16    11    13 ar  
    17    13    14 1   
@<TRIPOS>SUBSTRUCTURE
     1 K32         1 TEMP              0 ****  ****    0 ROOT
