@<TRIPOS>MOLECULE
K34
   14    15     1     0     0
SMALL
abcg2


@<TRIPOS>ATOM
      1 N1          -1.6720    -0.9230    -0.0230 na         1 K34      -0.189700
      2 N3          -1.7920     1.2400    -0.0050 nc         1 K34      -0.646000
      3 C4          -3.0030     0.6540    -0.0020 cc         1 K34       0.516900
      4 N            1.1240     1.4240    -0.0460 nc         1 K34      -0.579000
      5 C            2.4670     1.2200    -0.0510 cc         1 K34       0.279900
      6 C1           2.8650    -0.0800    -0.0350 cd         1 K34      -0.257000
      7 C2           0.4840     0.2960    -0.0270 cd         1 K34       0.378400
      8 C3          -0.9650     0.2140    -0.0180 cd         1 K34       0.379500
      9 N2          -2.9760    -0.6590    -0.0130 nd         1 K34      -0.524800
     10 S            1.4980    -1.1010    -0.0120 ss         1 K34      -0.025400
     11 H1          -1.3540    -1.8820    -0.0350 hn         1 K34       0.381000
     12 H2          -3.9300     1.2070     0.0070 h5         1 K34       0.068100
     13 H4           3.8680    -0.4780    -0.0350 h4         1 K34       0.167000
     14 H3           3.1390     2.0660    -0.0670 h4         1 K34       0.051100
@<TRIPOS>BOND
     1     1     8 1   
     2     1     9 1   
     3     1    11 1   
     4     2     3 1   
     5     2     8 2   
     6     3     9 2   
     7     3    12 1   
     8     4     5 1   
     9     4     7 2   
    10     5     6 2   
    11     5    14 1   
    12     6    10 1   
    13     6    13 1   
    14     7     8 1   
    15     7    10 1   
@<TRIPOS>SUBSTRUCTURE
     1 K34         1 TEMP              0 ****  ****    0 ROOT
