@<TRIPOS>MOLECULE
K34
   14    15     1     0     0
SMALL
No Charge or Current Charge


@<TRIPOS>ATOM
      1 N1          -1.6830    -0.9490    -0.0130 na         1 K34      -0.189700
      2 N3          -1.8340     1.2530    -0.0170 nc         1 K34      -0.646000
      3 C4          -3.0490     0.6310    -0.0080 cc         1 K34       0.516900
      4 N            1.1600     1.4710    -0.0360 nc         1 K34      -0.579000
      5 C            2.5100     1.2300    -0.0440 cc         1 K34       0.279900
      6 C1           2.8810    -0.0900    -0.0430 cd         1 K34      -0.257000
      7 C2           0.4830     0.3200    -0.0290 cd         1 K34       0.378400
      8 C3          -0.9730     0.2430    -0.0200 cd         1 K34       0.379500
      9 N2          -3.0370    -0.6930    -0.0050 nd         1 K34      -0.524800
     10 S            1.4770    -1.1400    -0.0320 ss         1 K34      -0.025400
     11 H1          -1.2950    -1.8890    -0.0130 hn         1 K34       0.381000
     12 H2          -3.9520     1.2320    -0.0040 h5         1 K34       0.068100
     13 H4           3.8840    -0.4990    -0.0480 h4         1 K34       0.167000
     14 H3           3.1820     2.0790    -0.0500 h4         1 K34       0.051100
@<TRIPOS>BOND
     1     1     8 1   
     2     1     9 1   
     3     1    11 1   
     4     2     3 1   
     5     2     8 2   
     6     3     9 2   
     7     3    12 1   
     8     4     5 1   
     9     4     7 2   
    10     5     6 2   
    11     5    14 1   
    12     6    10 1   
    13     6    13 1   
    14     7     8 1   
    15     7    10 1   
@<TRIPOS>SUBSTRUCTURE
     1 K34         1 TEMP              0 ****  ****    0 ROOT
