@<TRIPOS>MOLECULE
K35
   42    42     1     0     0
SMALL
bcc


@<TRIPOS>ATOM
      1 N1           0.6740     0.4290    -0.1410 ns         1 K35      -0.588900
      2 C6          -0.5060     0.2470    -0.9630 c6         1 K35       0.115700
      3 C7          -0.8430    -1.2430    -1.0940 c6         1 K35       0.141100
      4 C8          -1.3640    -1.7910     0.2290 c6         1 K35       0.106100
      5 O2          -1.6790    -3.1490     0.0350 oh         1 K35      -0.603800
      6 C11         -1.6920     1.0650    -0.4330 c6         1 K35      -0.074700
      7 C12         -1.3180     2.5450    -0.3540 c3         1 K35       0.156400
      8 O5          -2.4680     3.3400    -0.5330 oh         1 K35      -0.582800
      9 C10         -2.2010     0.4830     0.8840 c6         1 K35       0.145100
     10 O4          -3.3050     1.2340     1.3220 oh         1 K35      -0.572800
     11 C9          -2.5690    -0.9910     0.7110 c6         1 K35       0.069100
     12 O3          -2.9970    -1.5400     1.9460 oh         1 K35      -0.616800
     13 O1          -1.7940    -1.3690    -2.1240 oh         1 K35      -0.597800
     14 H1           0.5640     0.5220     0.8560 hn         1 K35       0.311500
     15 H4          -0.2630     0.6180    -1.9610 h1         1 K35       0.103700
     16 H5           0.0810    -1.7790    -1.3550 h1         1 K35       0.067700
     17 H6          -0.5600    -1.6870     0.9750 h1         1 K35       0.046700
     18 H7          -2.1180    -3.4700     0.8310 ho         1 K35       0.423000
     19 H8          -2.4860     0.9670    -1.1820 hc         1 K35       0.103700
     20 H9          -0.8280     2.7590     0.6050 h1         1 K35       0.018200
     21 H10         -0.5760     2.7570    -1.1360 h1         1 K35       0.018200
     22 H11         -2.1940     4.2600    -0.4940 ho         1 K35       0.402000
     23 H12         -1.3950     0.5430     1.6370 h1         1 K35       0.023700
     24 H13         -3.5680     0.8910     2.1830 ho         1 K35       0.405000
     25 H14         -3.3710    -1.0650    -0.0350 h1         1 K35       0.068700
     26 H15         -3.9510    -1.6430     1.9300 ho         1 K35       0.415000
     27 H16         -2.1260    -2.2730    -2.1200 ho         1 K35       0.426000
     28 C1           1.9320     0.3980    -0.6280 c          1 K35       0.664100
     29 C2           3.0160     0.5830     0.4120 c3         1 K35      -0.157400
     30 C3           4.3690     0.0330    -0.0160 c3         1 K35      -0.066400
     31 C4           5.4220     0.1810     1.0750 c3         1 K35      -0.077400
     32 C5           6.7820    -0.3530     0.6480 c3         1 K35      -0.088100
     33 O6           2.1750     0.2490    -1.8170 o          1 K35      -0.593100
     34 H2           3.1000     1.6550     0.6210 hc         1 K35       0.054200
     35 H3           2.7040     0.1210     1.3530 hc         1 K35       0.054200
     36 H17          4.2690    -1.0250    -0.2790 hc         1 K35       0.056200
     37 H18          4.7070     0.5430    -0.9210 hc         1 K35       0.056200
     38 H19          5.5140     1.2360     1.3510 hc         1 K35       0.034700
     39 H20          5.0880    -0.3410     1.9770 hc         1 K35       0.034700
     40 H21          6.7290    -1.4120     0.3910 hc         1 K35       0.034033
     41 H22          7.1550     0.1800    -0.2280 hc         1 K35       0.034033
     42 H23          7.5220    -0.2420     1.4420 hc         1 K35       0.034033
@<TRIPOS>BOND
     1     1     2 1   
     2     1    14 1   
     3     1    28 1   
     4     2     3 1   
     5     2     6 1   
     6     2    15 1   
     7     3     4 1   
     8     3    13 1   
     9     3    16 1   
    10     4     5 1   
    11     4    11 1   
    12     4    17 1   
    13     5    18 1   
    14     6     7 1   
    15     6     9 1   
    16     6    19 1   
    17     7     8 1   
    18     7    20 1   
    19     7    21 1   
    20     8    22 1   
    21     9    10 1   
    22     9    11 1   
    23     9    23 1   
    24    10    24 1   
    25    11    12 1   
    26    11    25 1   
    27    12    26 1   
    28    13    27 1   
    29    28    29 1   
    30    28    33 2   
    31    29    30 1   
    32    29    34 1   
    33    29    35 1   
    34    30    31 1   
    35    30    36 1   
    36    30    37 1   
    37    31    32 1   
    38    31    38 1   
    39    31    39 1   
    40    32    40 1   
    41    32    41 1   
    42    32    42 1   
@<TRIPOS>SUBSTRUCTURE
     1 K35         1 TEMP              0 ****  ****    0 ROOT
