@<TRIPOS>MOLECULE
K35
   42    42     1     0     0
SMALL
No Charge or Current Charge


@<TRIPOS>ATOM
      1 N1           0.7100     0.8040    -0.5030 ns         1 K35      -0.521900
      2 C6          -0.5870     0.5080    -1.1480 c6         1 K35       0.115700
      3 C7          -0.7980    -1.0370    -1.2950 c6         1 K35       0.164300
      4 C8          -1.0200    -1.7200     0.0910 c6         1 K35       0.129300
      5 O2          -1.2960    -3.1280    -0.0810 oh         1 K35      -0.726000
      6 C11         -1.7660     1.1760    -0.3630 c6         1 K35      -0.074700
      7 C12         -1.5480     2.7200    -0.2640 c3         1 K35       0.179600
      8 O5          -2.7740     3.4510    -0.1330 oh         1 K35      -0.645000
      9 C10         -1.9580     0.4770     1.0250 c6         1 K35       0.168300
     10 O4          -3.0650     1.0000     1.7630 oh         1 K35      -0.695000
     11 C9          -2.2050    -1.0490     0.8460 c6         1 K35       0.092300
     12 O3          -2.4090    -1.6830     2.1240 oh         1 K35      -0.739000
     13 O1          -1.9120    -1.3350    -2.1560 oh         1 K35      -0.720000
     14 H1           0.7180     1.0680     0.4750 hn         1 K35       0.311500
     15 H4          -0.5610     0.9380    -2.1620 h1         1 K35       0.103700
     16 H5           0.1180    -1.4590    -1.7350 h1         1 K35       0.067700
     17 H6          -0.1080    -1.5860     0.6930 h1         1 K35       0.046700
     18 H7          -0.4270    -3.5920    -0.1630 ho         1 K35       0.522000
     19 H8          -2.6810     1.0360    -0.9550 hc         1 K35       0.103700
     20 H9          -0.8800     2.9340     0.5810 h1         1 K35       0.018200
     21 H10         -1.0350     3.0550    -1.1750 h1         1 K35       0.018200
     22 H11         -2.5320     4.3940     0.0010 ho         1 K35       0.441000
     23 H12         -1.0390     0.6100     1.6150 h1         1 K35       0.023700
     24 H13         -3.3010     0.2540     2.3660 ho         1 K35       0.504000
     25 H14         -3.1090    -1.1720     0.2300 h1         1 K35       0.068700
     26 H15         -2.2700    -2.6470     1.9480 ho         1 K35       0.514000
     27 H16         -2.1800    -2.2510    -1.8950 ho         1 K35       0.525000
     28 C1           1.9360     0.7550    -1.1250 c          1 K35       0.597100
     29 C2           3.1300     1.1170    -0.2360 c3         1 K35      -0.157400
     30 C3           3.9500    -0.1380     0.1480 c3         1 K35      -0.066400
     31 C4           5.1590     0.1870     1.0520 c3         1 K35      -0.077400
     32 C5           5.9780    -1.0610     1.4360 c3         1 K35      -0.088100
     33 O6           2.0550     0.4670    -2.3060 o          1 K35      -0.593100
     34 H2           3.7830     1.8030    -0.7880 hc         1 K35       0.054200
     35 H3           2.7790     1.5970     0.6850 hc         1 K35       0.054200
     36 H17          3.2950    -0.8530     0.6630 hc         1 K35       0.056200
     37 H18          4.3050    -0.6320    -0.7660 hc         1 K35       0.056200
     38 H19          5.8170     0.8990     0.5380 hc         1 K35       0.034700
     39 H20          4.8080     0.6780     1.9680 hc         1 K35       0.034700
     40 H21          5.3560    -1.7800     1.9830 hc         1 K35       0.034033
     41 H22          6.3740    -1.5560     0.5410 hc         1 K35       0.034033
     42 H23          6.8230    -0.7820     2.0760 hc         1 K35       0.034033
@<TRIPOS>BOND
     1     1     2 1   
     2     1    14 1   
     3     1    28 1   
     4     2     3 1   
     5     2     6 1   
     6     2    15 1   
     7     3     4 1   
     8     3    13 1   
     9     3    16 1   
    10     4     5 1   
    11     4    11 1   
    12     4    17 1   
    13     5    18 1   
    14     6     7 1   
    15     6     9 1   
    16     6    19 1   
    17     7     8 1   
    18     7    20 1   
    19     7    21 1   
    20     8    22 1   
    21     9    10 1   
    22     9    11 1   
    23     9    23 1   
    24    10    24 1   
    25    11    12 1   
    26    11    25 1   
    27    12    26 1   
    28    13    27 1   
    29    28    29 1   
    30    28    33 2   
    31    29    30 1   
    32    29    34 1   
    33    29    35 1   
    34    30    31 1   
    35    30    36 1   
    36    30    37 1   
    37    31    32 1   
    38    31    38 1   
    39    31    39 1   
    40    32    40 1   
    41    32    41 1   
    42    32    42 1   
@<TRIPOS>SUBSTRUCTURE
     1 K35         1 TEMP              0 ****  ****    0 ROOT
